
*** ChampSim Multicore Out-of-Order Simulator ***

Warmup Instructions: 50000000
Simulation Instructions: 250000000
Number of CPUs: 1
LLC sets: 2048
LLC ways: 16
Off-chip DRAM Size: 4096 MB Channels: 1 Width: 64-bit Data Rate: 3200 MT/s

CPU 0 runs /home/wezelis2/ECE511_Project/ChampSim/dpc3_traces/416.gamess-875B.champsimtrace.xz
CPU 0 Bimodal branch predictor
CPU 0 L1I next line prefetcher
INIT BEST RECENT REQUEST TABLE MODULE
INIT DELAY QUEUE MODULE
INIT PREFETCH THROTTLE MODULE
INIT OFFSET SCORE MODULE
INIT BEST OFFSET PREFETCHER
OFFSET CHANGED FROM 1 TO 2
OFFSET CHANGED FROM 2 TO 1
Heartbeat CPU 0 instructions: 10000000 cycles: 4068534 heartbeat IPC: 2.45789 cumulative IPC: 2.45789 (Simulation time: 0 hr 0 min 29 sec) 
OFFSET CHANGED FROM 1 TO 14
CHANGING MSHR THRESHOLD FROM 28 TO 26
CHANGING MSHR THRESHOLD FROM 26 TO 24
CHANGING MSHR THRESHOLD FROM 24 TO 23
CHANGING MSHR THRESHOLD FROM 23 TO 21
CHANGING MSHR THRESHOLD FROM 21 TO 19
CHANGING MSHR THRESHOLD FROM 19 TO 18
CHANGING MSHR THRESHOLD FROM 18 TO 16
CHANGING MSHR THRESHOLD FROM 16 TO 15
CHANGING MSHR THRESHOLD FROM 15 TO 13
CHANGING MSHR THRESHOLD FROM 13 TO 11
CHANGING MSHR THRESHOLD FROM 11 TO 10
CHANGING MSHR THRESHOLD FROM 10 TO 8
CHANGING MSHR THRESHOLD FROM 8 TO 6
CHANGING MSHR THRESHOLD FROM 6 TO 8
CHANGING MSHR THRESHOLD FROM 8 TO 10
CHANGING MSHR THRESHOLD FROM 10 TO 11
CHANGING MSHR THRESHOLD FROM 11 TO 13
CHANGING MSHR THRESHOLD FROM 13 TO 15
CHANGING MSHR THRESHOLD FROM 15 TO 16
CHANGING MSHR THRESHOLD FROM 16 TO 18
CHANGING MSHR THRESHOLD FROM 18 TO 19
CHANGING MSHR THRESHOLD FROM 19 TO 21
CHANGING MSHR THRESHOLD FROM 21 TO 23
CHANGING MSHR THRESHOLD FROM 23 TO 24
CHANGING MSHR THRESHOLD FROM 24 TO 26
CHANGING MSHR THRESHOLD FROM 26 TO 28
OFFSET CHANGED FROM 14 TO -3
CHANGING MSHR THRESHOLD FROM 28 TO 26
CHANGING MSHR THRESHOLD FROM 26 TO 24
CHANGING MSHR THRESHOLD FROM 24 TO 23
CHANGING MSHR THRESHOLD FROM 23 TO 21
CHANGING MSHR THRESHOLD FROM 21 TO 19
CHANGING MSHR THRESHOLD FROM 19 TO 18
CHANGING MSHR THRESHOLD FROM 18 TO 16
CHANGING MSHR THRESHOLD FROM 16 TO 15
CHANGING MSHR THRESHOLD FROM 15 TO 13
CHANGING MSHR THRESHOLD FROM 13 TO 11
CHANGING MSHR THRESHOLD FROM 11 TO 10
CHANGING MSHR THRESHOLD FROM 10 TO 11
CHANGING MSHR THRESHOLD FROM 11 TO 13
CHANGING MSHR THRESHOLD FROM 13 TO 15
CHANGING MSHR THRESHOLD FROM 15 TO 16
CHANGING MSHR THRESHOLD FROM 16 TO 18
CHANGING MSHR THRESHOLD FROM 18 TO 19
CHANGING MSHR THRESHOLD FROM 19 TO 21
CHANGING MSHR THRESHOLD FROM 21 TO 23
CHANGING MSHR THRESHOLD FROM 23 TO 24
CHANGING MSHR THRESHOLD FROM 24 TO 26
CHANGING MSHR THRESHOLD FROM 26 TO 28
OFFSET CHANGED FROM -3 TO 5
CHANGING MSHR THRESHOLD FROM 28 TO 26
CHANGING MSHR THRESHOLD FROM 26 TO 24
CHANGING MSHR THRESHOLD FROM 24 TO 23
CHANGING MSHR THRESHOLD FROM 23 TO 21
CHANGING MSHR THRESHOLD FROM 21 TO 23
CHANGING MSHR THRESHOLD FROM 23 TO 24
CHANGING MSHR THRESHOLD FROM 24 TO 26
CHANGING MSHR THRESHOLD FROM 26 TO 28
CHANGING MSHR THRESHOLD FROM 28 TO 26
CHANGING MSHR THRESHOLD FROM 26 TO 28
CHANGING MSHR THRESHOLD FROM 28 TO 26
CHANGING MSHR THRESHOLD FROM 26 TO 24
CHANGING MSHR THRESHOLD FROM 24 TO 23
CHANGING MSHR THRESHOLD FROM 23 TO 21
CHANGING MSHR THRESHOLD FROM 21 TO 19
CHANGING MSHR THRESHOLD FROM 19 TO 18
CHANGING MSHR THRESHOLD FROM 18 TO 16
CHANGING MSHR THRESHOLD FROM 16 TO 15
CHANGING MSHR THRESHOLD FROM 15 TO 13
CHANGING MSHR THRESHOLD FROM 13 TO 11
CHANGING MSHR THRESHOLD FROM 11 TO 10
CHANGING MSHR THRESHOLD FROM 10 TO 11
CHANGING MSHR THRESHOLD FROM 11 TO 13
CHANGING MSHR THRESHOLD FROM 13 TO 15
CHANGING MSHR THRESHOLD FROM 15 TO 16
CHANGING MSHR THRESHOLD FROM 16 TO 18
CHANGING MSHR THRESHOLD FROM 18 TO 19
CHANGING MSHR THRESHOLD FROM 19 TO 21
CHANGING MSHR THRESHOLD FROM 21 TO 23
CHANGING MSHR THRESHOLD FROM 23 TO 24
CHANGING MSHR THRESHOLD FROM 24 TO 26
CHANGING MSHR THRESHOLD FROM 26 TO 28
OFFSET CHANGED FROM 5 TO 2
Heartbeat CPU 0 instructions: 20000003 cycles: 8019094 heartbeat IPC: 2.53129 cumulative IPC: 2.49405 (Simulation time: 0 hr 0 min 57 sec) 
OFFSET CHANGED FROM 2 TO 5
OFFSET CHANGED FROM 5 TO 5
Heartbeat CPU 0 instructions: 30000002 cycles: 12081853 heartbeat IPC: 2.46138 cumulative IPC: 2.48306 (Simulation time: 0 hr 1 min 24 sec) 
Heartbeat CPU 0 instructions: 40000000 cycles: 16071480 heartbeat IPC: 2.5065 cumulative IPC: 2.48888 (Simulation time: 0 hr 1 min 53 sec) 
OFFSET CHANGED FROM 5 TO 1
Heartbeat CPU 0 instructions: 50000000 cycles: 20026065 heartbeat IPC: 2.52871 cumulative IPC: 2.49675 (Simulation time: 0 hr 2 min 21 sec) 

Warmup complete CPU 0 instructions: 50000004 cycles: 20026066 (Simulation time: 0 hr 2 min 21 sec) 

OFFSET CHANGED FROM 1 TO 5
OFFSET CHANGED FROM 5 TO 3
Heartbeat CPU 0 instructions: 60000001 cycles: 28008018 heartbeat IPC: 1.25283 cumulative IPC: 1.25283 (Simulation time: 0 hr 2 min 43 sec) 
OFFSET CHANGED FROM 3 TO 4
OFFSET CHANGED FROM 4 TO 2
OFFSET CHANGED FROM 2 TO 4
Heartbeat CPU 0 instructions: 70000000 cycles: 36415928 heartbeat IPC: 1.18936 cumulative IPC: 1.22027 (Simulation time: 0 hr 3 min 7 sec) 
OFFSET CHANGED FROM 4 TO 7
OFFSET CHANGED FROM 7 TO 4
OFFSET CHANGED FROM 4 TO -7
OFFSET CHANGED FROM -7 TO 1
Heartbeat CPU 0 instructions: 80000000 cycles: 44942489 heartbeat IPC: 1.17281 cumulative IPC: 1.20403 (Simulation time: 0 hr 3 min 29 sec) 
OFFSET CHANGED FROM 1 TO 8
OFFSET CHANGED FROM 8 TO 4
OFFSET CHANGED FROM 4 TO 4
OFFSET CHANGED FROM 4 TO 5
Heartbeat CPU 0 instructions: 90000001 cycles: 52604141 heartbeat IPC: 1.3052 cumulative IPC: 1.22782 (Simulation time: 0 hr 3 min 52 sec) 
OFFSET CHANGED FROM 5 TO 8
OFFSET CHANGED FROM 8 TO 2
Heartbeat CPU 0 instructions: 100000002 cycles: 59789865 heartbeat IPC: 1.39165 cumulative IPC: 1.25743 (Simulation time: 0 hr 4 min 14 sec) 
OFFSET CHANGED FROM 2 TO 7
OFFSET CHANGED FROM 7 TO -4
OFFSET CHANGED FROM -4 TO 5
OFFSET CHANGED FROM 5 TO 6
OFFSET CHANGED FROM 6 TO 5
Heartbeat CPU 0 instructions: 110000000 cycles: 67612312 heartbeat IPC: 1.27837 cumulative IPC: 1.26087 (Simulation time: 0 hr 4 min 35 sec) 
OFFSET CHANGED FROM 5 TO 4
OFFSET CHANGED FROM 4 TO 7
OFFSET CHANGED FROM 7 TO 7
OFFSET CHANGED FROM 7 TO 3
Heartbeat CPU 0 instructions: 120000001 cycles: 75246086 heartbeat IPC: 1.30997 cumulative IPC: 1.26766 (Simulation time: 0 hr 4 min 57 sec) 
OFFSET CHANGED FROM 3 TO 6
OFFSET CHANGED FROM 6 TO 3
OFFSET CHANGED FROM 3 TO 4
OFFSET CHANGED FROM 4 TO 5
OFFSET CHANGED FROM 5 TO 9
Heartbeat CPU 0 instructions: 130000001 cycles: 82936972 heartbeat IPC: 1.30024 cumulative IPC: 1.27164 (Simulation time: 0 hr 5 min 19 sec) 
OFFSET CHANGED FROM 9 TO 8
Heartbeat CPU 0 instructions: 140000003 cycles: 90081542 heartbeat IPC: 1.39966 cumulative IPC: 1.2847 (Simulation time: 0 hr 5 min 42 sec) 
OFFSET CHANGED FROM 8 TO 4
Heartbeat CPU 0 instructions: 150000000 cycles: 96951440 heartbeat IPC: 1.45563 cumulative IPC: 1.29996 (Simulation time: 0 hr 6 min 5 sec) 
OFFSET CHANGED FROM 4 TO 1
Heartbeat CPU 0 instructions: 160000001 cycles: 104267406 heartbeat IPC: 1.36687 cumulative IPC: 1.30577 (Simulation time: 0 hr 6 min 27 sec) 
OFFSET CHANGED FROM 1 TO 1
Heartbeat CPU 0 instructions: 170000002 cycles: 111564408 heartbeat IPC: 1.37043 cumulative IPC: 1.31093 (Simulation time: 0 hr 6 min 51 sec) 
OFFSET CHANGED FROM 1 TO 1
OFFSET CHANGED FROM 1 TO 1
OFFSET CHANGED FROM 1 TO 3
OFFSET CHANGED FROM 3 TO 3
Heartbeat CPU 0 instructions: 180000002 cycles: 119836771 heartbeat IPC: 1.20884 cumulative IPC: 1.30247 (Simulation time: 0 hr 7 min 13 sec) 
OFFSET CHANGED FROM 3 TO -3
OFFSET CHANGED FROM -3 TO 5
OFFSET CHANGED FROM 5 TO 2
OFFSET CHANGED FROM 2 TO -7
OFFSET CHANGED FROM -7 TO 4
Heartbeat CPU 0 instructions: 190000000 cycles: 128322968 heartbeat IPC: 1.17838 cumulative IPC: 1.29274 (Simulation time: 0 hr 7 min 36 sec) 
OFFSET CHANGED FROM 4 TO 5
OFFSET CHANGED FROM 5 TO 3
OFFSET CHANGED FROM 3 TO 2
OFFSET CHANGED FROM 2 TO -3
OFFSET CHANGED FROM -3 TO 2
Heartbeat CPU 0 instructions: 200000000 cycles: 136858072 heartbeat IPC: 1.17163 cumulative IPC: 1.28389 (Simulation time: 0 hr 7 min 59 sec) 
OFFSET CHANGED FROM 2 TO 1
OFFSET CHANGED FROM 1 TO 6
OFFSET CHANGED FROM 6 TO 5
Heartbeat CPU 0 instructions: 210000000 cycles: 144664495 heartbeat IPC: 1.281 cumulative IPC: 1.28371 (Simulation time: 0 hr 8 min 21 sec) 
OFFSET CHANGED FROM 5 TO 9
OFFSET CHANGED FROM 9 TO 2
Heartbeat CPU 0 instructions: 220000000 cycles: 151934788 heartbeat IPC: 1.37546 cumulative IPC: 1.28877 (Simulation time: 0 hr 8 min 43 sec) 
OFFSET CHANGED FROM 2 TO 5
OFFSET CHANGED FROM 5 TO -7
OFFSET CHANGED FROM -7 TO 3
OFFSET CHANGED FROM 3 TO 6
OFFSET CHANGED FROM 6 TO 8
Heartbeat CPU 0 instructions: 230000000 cycles: 159197842 heartbeat IPC: 1.37683 cumulative IPC: 1.29337 (Simulation time: 0 hr 9 min 5 sec) 
OFFSET CHANGED FROM 8 TO 3
OFFSET CHANGED FROM 3 TO 5
OFFSET CHANGED FROM 5 TO 3
OFFSET CHANGED FROM 3 TO 11
Heartbeat CPU 0 instructions: 240000000 cycles: 166725410 heartbeat IPC: 1.32845 cumulative IPC: 1.29517 (Simulation time: 0 hr 9 min 27 sec) 
OFFSET CHANGED FROM 11 TO 3
OFFSET CHANGED FROM 3 TO 3
OFFSET CHANGED FROM 3 TO 2
OFFSET CHANGED FROM 2 TO 9
Heartbeat CPU 0 instructions: 250000001 cycles: 174415466 heartbeat IPC: 1.30038 cumulative IPC: 1.29543 (Simulation time: 0 hr 9 min 49 sec) 
OFFSET CHANGED FROM 9 TO 7
OFFSET CHANGED FROM 7 TO 11
OFFSET CHANGED FROM 11 TO 11
OFFSET CHANGED FROM 11 TO 3
Heartbeat CPU 0 instructions: 260000001 cycles: 181921696 heartbeat IPC: 1.33223 cumulative IPC: 1.29713 (Simulation time: 0 hr 10 min 12 sec) 
OFFSET CHANGED FROM 3 TO 10
Heartbeat CPU 0 instructions: 270000003 cycles: 189798072 heartbeat IPC: 1.26962 cumulative IPC: 1.29586 (Simulation time: 0 hr 10 min 34 sec) 
OFFSET CHANGED FROM 10 TO 1
Heartbeat CPU 0 instructions: 280000000 cycles: 197680362 heartbeat IPC: 1.26867 cumulative IPC: 1.29465 (Simulation time: 0 hr 10 min 58 sec) 
Heartbeat CPU 0 instructions: 290000000 cycles: 205492013 heartbeat IPC: 1.28014 cumulative IPC: 1.29404 (Simulation time: 0 hr 11 min 22 sec) 
OFFSET CHANGED FROM 1 TO 1
Heartbeat CPU 0 instructions: 300000001 cycles: 212915679 heartbeat IPC: 1.34704 cumulative IPC: 1.29608 (Simulation time: 0 hr 11 min 45 sec) 
Finished CPU 0 instructions: 250000001 cycles: 192889616 cumulative IPC: 1.29608 (Simulation time: 0 hr 11 min 45 sec) 

ChampSim completed all CPUs

Region of Interest Statistics

CPU 0 cumulative IPC: 1.29608 instructions: 250000001 cycles: 192889616
L1D TOTAL     ACCESS:   83995157  HIT:   83715884  MISS:     279273
L1D LOAD      ACCESS:   54256522  HIT:   54031443  MISS:     225079
L1D RFO       ACCESS:   29738635  HIT:   29684441  MISS:      54194
L1D PREFETCH  ACCESS:          0  HIT:          0  MISS:          0
L1D WRITEBACK ACCESS:          0  HIT:          0  MISS:          0
L1D PREFETCH  REQUESTED:          0  ISSUED:          0  USEFUL:          0  USELESS:          0
L1D AVERAGE MISS LATENCY: 15.2 cycles
L1I TOTAL     ACCESS:   38663382  HIT:   38556368  MISS:     107014
L1I LOAD      ACCESS:   38609408  HIT:   38531705  MISS:      77703
L1I RFO       ACCESS:          0  HIT:          0  MISS:          0
L1I PREFETCH  ACCESS:      53974  HIT:      24663  MISS:      29311
L1I WRITEBACK ACCESS:          0  HIT:          0  MISS:          0
L1I PREFETCH  REQUESTED:      98711  ISSUED:      98711  USEFUL:      22205  USELESS:       7106
L1I AVERAGE MISS LATENCY: 12.7334 cycles
L2C TOTAL     ACCESS:     761322  HIT:     759540  MISS:       1782
L2C LOAD      ACCESS:     292178  HIT:     291875  MISS:        303
L2C RFO       ACCESS:      53989  HIT:      53926  MISS:         63
L2C PREFETCH  ACCESS:     349534  HIT:     348118  MISS:       1416
L2C WRITEBACK ACCESS:      65621  HIT:      65621  MISS:          0
L2C PREFETCH  REQUESTED:     314302  ISSUED:     314302  USEFUL:        867  USELESS:         10
L2C AVERAGE MISS LATENCY: 164.574 cycles
LLC TOTAL     ACCESS:       1782  HIT:          4  MISS:       1778
LLC LOAD      ACCESS:        289  HIT:          0  MISS:        289
LLC RFO       ACCESS:         63  HIT:          0  MISS:         63
LLC PREFETCH  ACCESS:       1430  HIT:          4  MISS:       1426
LLC WRITEBACK ACCESS:          0  HIT:          0  MISS:          0
LLC PREFETCH  REQUESTED:          0  ISSUED:          0  USEFUL:          0  USELESS:          0
LLC AVERAGE MISS LATENCY: 133.839 cycles
Major fault: 0 Minor fault: 184
CPU 0 L1I next line prefetcher final stats
CPU 0 L2C best offset prefetcher final stats

DRAM Statistics
 CHANNEL 0
 RQ ROW_BUFFER_HIT:        746  ROW_BUFFER_MISS:       1032
 DBUS_CONGESTED:        364
 WQ ROW_BUFFER_HIT:          0  ROW_BUFFER_MISS:          0  FULL:          0

 AVG_CONGESTED_CYCLE: 5

CPU 0 Branch Prediction Accuracy: 92.4671% MPKI: 7.0005 Average ROB Occupancy at Mispredict: 71.2879

Branch types
NOT_BRANCH: 226766699 90.7067%
BRANCH_DIRECT_JUMP: 2004180 0.801672%
BRANCH_INDIRECT: 422670 0.169068%
BRANCH_CONDITIONAL: 18495223 7.39809%
BRANCH_DIRECT_CALL: 1155484 0.462194%
BRANCH_INDIRECT_CALL: 0 0%
BRANCH_RETURN: 1155484 0.462194%
BRANCH_OTHER: 0 0%

