
*** ChampSim Multicore Out-of-Order Simulator ***

Warmup Instructions: 50000000
Simulation Instructions: 250000000
Number of CPUs: 1
LLC sets: 2048
LLC ways: 16
Off-chip DRAM Size: 4096 MB Channels: 1 Width: 64-bit Data Rate: 3200 MT/s

CPU 0 runs /home/wezelis2/ECE511_Project/ChampSim/dpc3_traces/429.mcf-217B.champsimtrace.xz
CPU 0 Bimodal branch predictor
CPU 0 L1I next line prefetcher
INIT BEST RECENT REQUEST TABLE MODULE
INIT DELAY QUEUE MODULE
INIT PREFETCH THROTTLE MODULE
INIT OFFSET SCORE MODULE
INIT BEST OFFSET PREFETCHER
OFFSET CHANGED FROM 1 TO -6
OFFSET CHANGED FROM -6 TO -6
OFFSET CHANGED FROM -6 TO -6
OFFSET CHANGED FROM -6 TO -3
OFFSET CHANGED FROM -3 TO -6
OFFSET CHANGED FROM -6 TO -3
OFFSET CHANGED FROM -3 TO -6
OFFSET CHANGED FROM -6 TO -9
OFFSET CHANGED FROM -9 TO -9
OFFSET CHANGED FROM -9 TO -9
OFFSET CHANGED FROM -9 TO -3
OFFSET CHANGED FROM -3 TO -3
OFFSET CHANGED FROM -3 TO -3
OFFSET CHANGED FROM -3 TO -3
OFFSET CHANGED FROM -3 TO -6
OFFSET CHANGED FROM -6 TO -3
OFFSET CHANGED FROM -3 TO -6
OFFSET CHANGED FROM -6 TO -6
OFFSET CHANGED FROM -6 TO -3
OFFSET CHANGED FROM -3 TO -6
OFFSET CHANGED FROM -6 TO -3
OFFSET CHANGED FROM -3 TO -3
OFFSET CHANGED FROM -3 TO -3
OFFSET CHANGED FROM -3 TO -12
OFFSET CHANGED FROM -12 TO -9
OFFSET CHANGED FROM -9 TO -12
OFFSET CHANGED FROM -12 TO -12
OFFSET CHANGED FROM -12 TO -12
OFFSET CHANGED FROM -12 TO -6
OFFSET CHANGED FROM -6 TO -9
OFFSET CHANGED FROM -9 TO -3
OFFSET CHANGED FROM -3 TO -3
OFFSET CHANGED FROM -3 TO -3
OFFSET CHANGED FROM -3 TO -3
OFFSET CHANGED FROM -3 TO -9
OFFSET CHANGED FROM -9 TO -12
OFFSET CHANGED FROM -12 TO -3
OFFSET CHANGED FROM -3 TO -3
OFFSET CHANGED FROM -3 TO -3
OFFSET CHANGED FROM -3 TO -12
OFFSET CHANGED FROM -12 TO -12
OFFSET CHANGED FROM -12 TO -6
OFFSET CHANGED FROM -6 TO -3
OFFSET CHANGED FROM -3 TO -9
OFFSET CHANGED FROM -9 TO -3
OFFSET CHANGED FROM -3 TO -3
OFFSET CHANGED FROM -3 TO -3
OFFSET CHANGED FROM -3 TO -6
OFFSET CHANGED FROM -6 TO -3
OFFSET CHANGED FROM -3 TO -3
OFFSET CHANGED FROM -3 TO -3
OFFSET CHANGED FROM -3 TO -3
OFFSET CHANGED FROM -3 TO -3
OFFSET CHANGED FROM -3 TO -6
OFFSET CHANGED FROM -6 TO -9
OFFSET CHANGED FROM -9 TO -3
OFFSET CHANGED FROM -3 TO -6
OFFSET CHANGED FROM -6 TO -6
OFFSET CHANGED FROM -6 TO -9
OFFSET CHANGED FROM -9 TO -3
OFFSET CHANGED FROM -3 TO -3
OFFSET CHANGED FROM -3 TO -3
OFFSET CHANGED FROM -3 TO -12
Heartbeat CPU 0 instructions: 10000000 cycles: 3670067 heartbeat IPC: 2.72475 cumulative IPC: 2.72475 (Simulation time: 0 hr 0 min 28 sec) 
OFFSET CHANGED FROM -12 TO -3
OFFSET CHANGED FROM -3 TO -3
OFFSET CHANGED FROM -3 TO -6
OFFSET CHANGED FROM -6 TO -3
OFFSET CHANGED FROM -3 TO -9
OFFSET CHANGED FROM -9 TO -9
OFFSET CHANGED FROM -9 TO -3
OFFSET CHANGED FROM -3 TO -3
OFFSET CHANGED FROM -3 TO -15
OFFSET CHANGED FROM -15 TO -9
OFFSET CHANGED FROM -9 TO -9
OFFSET CHANGED FROM -9 TO -15
OFFSET CHANGED FROM -15 TO -9
OFFSET CHANGED FROM -9 TO -9
OFFSET CHANGED FROM -9 TO -3
OFFSET CHANGED FROM -3 TO -3
OFFSET CHANGED FROM -3 TO -3
OFFSET CHANGED FROM -3 TO -3
OFFSET CHANGED FROM -3 TO -3
OFFSET CHANGED FROM -3 TO -3
OFFSET CHANGED FROM -3 TO -3
OFFSET CHANGED FROM -3 TO -3
OFFSET CHANGED FROM -3 TO -3
OFFSET CHANGED FROM -3 TO -9
OFFSET CHANGED FROM -9 TO -6
OFFSET CHANGED FROM -6 TO -3
OFFSET CHANGED FROM -3 TO -9
OFFSET CHANGED FROM -9 TO -9
OFFSET CHANGED FROM -9 TO -3
OFFSET CHANGED FROM -3 TO -3
OFFSET CHANGED FROM -3 TO -9
OFFSET CHANGED FROM -9 TO -6
OFFSET CHANGED FROM -6 TO -9
OFFSET CHANGED FROM -9 TO -15
OFFSET CHANGED FROM -15 TO -3
OFFSET CHANGED FROM -3 TO -3
OFFSET CHANGED FROM -3 TO -3
OFFSET CHANGED FROM -3 TO -3
OFFSET CHANGED FROM -3 TO -3
OFFSET CHANGED FROM -3 TO -3
OFFSET CHANGED FROM -3 TO -3
OFFSET CHANGED FROM -3 TO -3
OFFSET CHANGED FROM -3 TO -3
OFFSET CHANGED FROM -3 TO -3
OFFSET CHANGED FROM -3 TO -3
OFFSET CHANGED FROM -3 TO -3
OFFSET CHANGED FROM -3 TO -15
OFFSET CHANGED FROM -15 TO -12
OFFSET CHANGED FROM -12 TO -9
OFFSET CHANGED FROM -9 TO -12
OFFSET CHANGED FROM -12 TO -9
OFFSET CHANGED FROM -9 TO -3
OFFSET CHANGED FROM -3 TO -3
OFFSET CHANGED FROM -3 TO -9
OFFSET CHANGED FROM -9 TO -3
OFFSET CHANGED FROM -3 TO -3
OFFSET CHANGED FROM -3 TO -9
OFFSET CHANGED FROM -9 TO -9
OFFSET CHANGED FROM -9 TO -3
OFFSET CHANGED FROM -3 TO -12
OFFSET CHANGED FROM -12 TO -9
OFFSET CHANGED FROM -9 TO -3
OFFSET CHANGED FROM -3 TO -15
OFFSET CHANGED FROM -15 TO -12
OFFSET CHANGED FROM -12 TO -3
OFFSET CHANGED FROM -3 TO -9
OFFSET CHANGED FROM -9 TO -3
OFFSET CHANGED FROM -3 TO -3
OFFSET CHANGED FROM -3 TO -15
OFFSET CHANGED FROM -15 TO -9
OFFSET CHANGED FROM -9 TO -3
OFFSET CHANGED FROM -3 TO -15
OFFSET CHANGED FROM -15 TO -6
OFFSET CHANGED FROM -6 TO -3
OFFSET CHANGED FROM -3 TO -3
OFFSET CHANGED FROM -3 TO -3
OFFSET CHANGED FROM -3 TO -3
OFFSET CHANGED FROM -3 TO -3
OFFSET CHANGED FROM -3 TO -3
OFFSET CHANGED FROM -3 TO -6
OFFSET CHANGED FROM -6 TO -3
OFFSET CHANGED FROM -3 TO -3
OFFSET CHANGED FROM -3 TO -3
OFFSET CHANGED FROM -3 TO -15
OFFSET CHANGED FROM -15 TO -15
OFFSET CHANGED FROM -15 TO -9
OFFSET CHANGED FROM -9 TO -3
OFFSET CHANGED FROM -3 TO -3
OFFSET CHANGED FROM -3 TO -3
OFFSET CHANGED FROM -3 TO -3
OFFSET CHANGED FROM -3 TO -3
OFFSET CHANGED FROM -3 TO -3
OFFSET CHANGED FROM -3 TO -12
OFFSET CHANGED FROM -12 TO -6
OFFSET CHANGED FROM -6 TO -9
OFFSET CHANGED FROM -9 TO -9
OFFSET CHANGED FROM -9 TO -3
OFFSET CHANGED FROM -3 TO -15
OFFSET CHANGED FROM -15 TO -15
OFFSET CHANGED FROM -15 TO -6
OFFSET CHANGED FROM -6 TO -12
OFFSET CHANGED FROM -12 TO -6
OFFSET CHANGED FROM -6 TO -3
OFFSET CHANGED FROM -3 TO -9
OFFSET CHANGED FROM -9 TO -3
OFFSET CHANGED FROM -3 TO -3
OFFSET CHANGED FROM -3 TO -3
OFFSET CHANGED FROM -3 TO -3
OFFSET CHANGED FROM -3 TO -3
OFFSET CHANGED FROM -3 TO -3
OFFSET CHANGED FROM -3 TO -3
OFFSET CHANGED FROM -3 TO -3
OFFSET CHANGED FROM -3 TO -3
OFFSET CHANGED FROM -3 TO -3
OFFSET CHANGED FROM -3 TO -9
OFFSET CHANGED FROM -9 TO -3
OFFSET CHANGED FROM -3 TO -3
OFFSET CHANGED FROM -3 TO -3
OFFSET CHANGED FROM -3 TO -6
OFFSET CHANGED FROM -6 TO -3
OFFSET CHANGED FROM -3 TO -9
OFFSET CHANGED FROM -9 TO -3
OFFSET CHANGED FROM -3 TO -3
OFFSET CHANGED FROM -3 TO -3
OFFSET CHANGED FROM -3 TO -3
OFFSET CHANGED FROM -3 TO -3
OFFSET CHANGED FROM -3 TO -9
OFFSET CHANGED FROM -9 TO -3
OFFSET CHANGED FROM -3 TO -15
OFFSET CHANGED FROM -15 TO -3
OFFSET CHANGED FROM -3 TO -3
OFFSET CHANGED FROM -3 TO -15
OFFSET CHANGED FROM -15 TO -12
OFFSET CHANGED FROM -12 TO -3
OFFSET CHANGED FROM -3 TO -3
OFFSET CHANGED FROM -3 TO -3
OFFSET CHANGED FROM -3 TO -3
OFFSET CHANGED FROM -3 TO -3
OFFSET CHANGED FROM -3 TO -6
OFFSET CHANGED FROM -6 TO -3
OFFSET CHANGED FROM -3 TO -15
OFFSET CHANGED FROM -15 TO -12
OFFSET CHANGED FROM -12 TO -6
OFFSET CHANGED FROM -6 TO -3
OFFSET CHANGED FROM -3 TO -12
OFFSET CHANGED FROM -12 TO -3
OFFSET CHANGED FROM -3 TO -12
OFFSET CHANGED FROM -12 TO -9
OFFSET CHANGED FROM -9 TO -3
OFFSET CHANGED FROM -3 TO -3
OFFSET CHANGED FROM -3 TO -9
OFFSET CHANGED FROM -9 TO -9
OFFSET CHANGED FROM -9 TO -3
OFFSET CHANGED FROM -3 TO -3
OFFSET CHANGED FROM -3 TO -6
OFFSET CHANGED FROM -6 TO -6
OFFSET CHANGED FROM -6 TO -3
OFFSET CHANGED FROM -3 TO -3
OFFSET CHANGED FROM -3 TO -3
OFFSET CHANGED FROM -3 TO -3
OFFSET CHANGED FROM -3 TO -3
OFFSET CHANGED FROM -3 TO -3
OFFSET CHANGED FROM -3 TO -3
OFFSET CHANGED FROM -3 TO -3
OFFSET CHANGED FROM -3 TO -3
OFFSET CHANGED FROM -3 TO -3
OFFSET CHANGED FROM -3 TO -3
OFFSET CHANGED FROM -3 TO -3
OFFSET CHANGED FROM -3 TO -3
OFFSET CHANGED FROM -3 TO -9
OFFSET CHANGED FROM -9 TO -3
OFFSET CHANGED FROM -3 TO -3
OFFSET CHANGED FROM -3 TO -9
OFFSET CHANGED FROM -9 TO -3
OFFSET CHANGED FROM -3 TO -3
OFFSET CHANGED FROM -3 TO -3
OFFSET CHANGED FROM -3 TO -3
OFFSET CHANGED FROM -3 TO -3
OFFSET CHANGED FROM -3 TO -3
OFFSET CHANGED FROM -3 TO -3
OFFSET CHANGED FROM -3 TO -6
OFFSET CHANGED FROM -6 TO -3
OFFSET CHANGED FROM -3 TO -3
OFFSET CHANGED FROM -3 TO -6
OFFSET CHANGED FROM -6 TO -3
OFFSET CHANGED FROM -3 TO -3
OFFSET CHANGED FROM -3 TO -6
OFFSET CHANGED FROM -6 TO -3
OFFSET CHANGED FROM -3 TO -12
OFFSET CHANGED FROM -12 TO -12
OFFSET CHANGED FROM -12 TO -3
OFFSET CHANGED FROM -3 TO -12
OFFSET CHANGED FROM -12 TO -12
OFFSET CHANGED FROM -12 TO -6
OFFSET CHANGED FROM -6 TO -12
OFFSET CHANGED FROM -12 TO -12
OFFSET CHANGED FROM -12 TO -12
OFFSET CHANGED FROM -12 TO -12
OFFSET CHANGED FROM -12 TO -12
OFFSET CHANGED FROM -12 TO -6
OFFSET CHANGED FROM -6 TO -3
OFFSET CHANGED FROM -3 TO -3
OFFSET CHANGED FROM -3 TO -3
OFFSET CHANGED FROM -3 TO -15
OFFSET CHANGED FROM -15 TO -9
OFFSET CHANGED FROM -9 TO -6
OFFSET CHANGED FROM -6 TO -15
OFFSET CHANGED FROM -15 TO -15
OFFSET CHANGED FROM -15 TO -12
OFFSET CHANGED FROM -12 TO -6
OFFSET CHANGED FROM -6 TO -3
OFFSET CHANGED FROM -3 TO -3
OFFSET CHANGED FROM -3 TO -3
OFFSET CHANGED FROM -3 TO -3
OFFSET CHANGED FROM -3 TO -3
OFFSET CHANGED FROM -3 TO -6
OFFSET CHANGED FROM -6 TO -3
OFFSET CHANGED FROM -3 TO -3
OFFSET CHANGED FROM -3 TO -9
OFFSET CHANGED FROM -9 TO -3
OFFSET CHANGED FROM -3 TO -3
OFFSET CHANGED FROM -3 TO -3
OFFSET CHANGED FROM -3 TO -3
OFFSET CHANGED FROM -3 TO -3
OFFSET CHANGED FROM -3 TO -3
OFFSET CHANGED FROM -3 TO -6
OFFSET CHANGED FROM -6 TO -3
OFFSET CHANGED FROM -3 TO -9
OFFSET CHANGED FROM -9 TO -3
OFFSET CHANGED FROM -3 TO -3
OFFSET CHANGED FROM -3 TO -9
OFFSET CHANGED FROM -9 TO -3
OFFSET CHANGED FROM -3 TO -3
OFFSET CHANGED FROM -3 TO -3
OFFSET CHANGED FROM -3 TO -3
OFFSET CHANGED FROM -3 TO -3
OFFSET CHANGED FROM -3 TO -3
OFFSET CHANGED FROM -3 TO -3
OFFSET CHANGED FROM -3 TO -3
OFFSET CHANGED FROM -3 TO -9
OFFSET CHANGED FROM -9 TO -3
OFFSET CHANGED FROM -3 TO -3
OFFSET CHANGED FROM -3 TO -9
OFFSET CHANGED FROM -9 TO -6
OFFSET CHANGED FROM -6 TO -3
OFFSET CHANGED FROM -3 TO -9
OFFSET CHANGED FROM -9 TO -9
OFFSET CHANGED FROM -9 TO -3
OFFSET CHANGED FROM -3 TO -3
OFFSET CHANGED FROM -3 TO -9
OFFSET CHANGED FROM -9 TO -6
OFFSET CHANGED FROM -6 TO -3
OFFSET CHANGED FROM -3 TO -3
OFFSET CHANGED FROM -3 TO -3
OFFSET CHANGED FROM -3 TO -3
OFFSET CHANGED FROM -3 TO -3
OFFSET CHANGED FROM -3 TO -3
OFFSET CHANGED FROM -3 TO -3
OFFSET CHANGED FROM -3 TO -3
OFFSET CHANGED FROM -3 TO -3
OFFSET CHANGED FROM -3 TO -3
OFFSET CHANGED FROM -3 TO -3
OFFSET CHANGED FROM -3 TO -3
OFFSET CHANGED FROM -3 TO -15
OFFSET CHANGED FROM -15 TO -12
OFFSET CHANGED FROM -12 TO -6
OFFSET CHANGED FROM -6 TO -3
OFFSET CHANGED FROM -3 TO -12
OFFSET CHANGED FROM -12 TO -6
OFFSET CHANGED FROM -6 TO -12
OFFSET CHANGED FROM -12 TO -12
OFFSET CHANGED FROM -12 TO -3
OFFSET CHANGED FROM -3 TO -3
OFFSET CHANGED FROM -3 TO -3
OFFSET CHANGED FROM -3 TO -3
OFFSET CHANGED FROM -3 TO -6
OFFSET CHANGED FROM -6 TO -3
OFFSET CHANGED FROM -3 TO -3
OFFSET CHANGED FROM -3 TO -6
OFFSET CHANGED FROM -6 TO -3
OFFSET CHANGED FROM -3 TO -3
OFFSET CHANGED FROM -3 TO -3
OFFSET CHANGED FROM -3 TO -3
OFFSET CHANGED FROM -3 TO -9
OFFSET CHANGED FROM -9 TO -9
OFFSET CHANGED FROM -9 TO -9
OFFSET CHANGED FROM -9 TO -6
OFFSET CHANGED FROM -6 TO -15
OFFSET CHANGED FROM -15 TO -9
OFFSET CHANGED FROM -9 TO -3
OFFSET CHANGED FROM -3 TO -3
OFFSET CHANGED FROM -3 TO -9
OFFSET CHANGED FROM -9 TO -3
OFFSET CHANGED FROM -3 TO -12
OFFSET CHANGED FROM -12 TO -12
OFFSET CHANGED FROM -12 TO -6
OFFSET CHANGED FROM -6 TO -6
OFFSET CHANGED FROM -6 TO -9
OFFSET CHANGED FROM -9 TO -3
OFFSET CHANGED FROM -3 TO -3
OFFSET CHANGED FROM -3 TO -9
OFFSET CHANGED FROM -9 TO -6
OFFSET CHANGED FROM -6 TO -3
OFFSET CHANGED FROM -3 TO -3
OFFSET CHANGED FROM -3 TO -3
OFFSET CHANGED FROM -3 TO -3
OFFSET CHANGED FROM -3 TO -3
OFFSET CHANGED FROM -3 TO -3
OFFSET CHANGED FROM -3 TO -3
OFFSET CHANGED FROM -3 TO -3
OFFSET CHANGED FROM -3 TO -3
OFFSET CHANGED FROM -3 TO -3
OFFSET CHANGED FROM -3 TO -3
OFFSET CHANGED FROM -3 TO -9
OFFSET CHANGED FROM -9 TO -6
OFFSET CHANGED FROM -6 TO -3
OFFSET CHANGED FROM -3 TO -15
OFFSET CHANGED FROM -15 TO -3
OFFSET CHANGED FROM -3 TO -3
OFFSET CHANGED FROM -3 TO -3
OFFSET CHANGED FROM -3 TO -3
OFFSET CHANGED FROM -3 TO -3
OFFSET CHANGED FROM -3 TO -3
OFFSET CHANGED FROM -3 TO -3
OFFSET CHANGED FROM -3 TO -3
OFFSET CHANGED FROM -3 TO -3
OFFSET CHANGED FROM -3 TO -3
OFFSET CHANGED FROM -3 TO -3
OFFSET CHANGED FROM -3 TO -3
OFFSET CHANGED FROM -3 TO -3
OFFSET CHANGED FROM -3 TO -9
OFFSET CHANGED FROM -9 TO -9
OFFSET CHANGED FROM -9 TO -3
OFFSET CHANGED FROM -3 TO -9
OFFSET CHANGED FROM -9 TO -3
OFFSET CHANGED FROM -3 TO -3
OFFSET CHANGED FROM -3 TO -3
OFFSET CHANGED FROM -3 TO -3
OFFSET CHANGED FROM -3 TO -3
OFFSET CHANGED FROM -3 TO -3
OFFSET CHANGED FROM -3 TO -3
OFFSET CHANGED FROM -3 TO -15
OFFSET CHANGED FROM -15 TO -3
OFFSET CHANGED FROM -3 TO -3
OFFSET CHANGED FROM -3 TO -15
OFFSET CHANGED FROM -15 TO -15
OFFSET CHANGED FROM -15 TO -3
OFFSET CHANGED FROM -3 TO -9
OFFSET CHANGED FROM -9 TO -6
OFFSET CHANGED FROM -6 TO -6
OFFSET CHANGED FROM -6 TO -12
OFFSET CHANGED FROM -12 TO -12
OFFSET CHANGED FROM -12 TO -6
OFFSET CHANGED FROM -6 TO -3
OFFSET CHANGED FROM -3 TO -3
OFFSET CHANGED FROM -3 TO -3
OFFSET CHANGED FROM -3 TO -3
OFFSET CHANGED FROM -3 TO -3
OFFSET CHANGED FROM -3 TO -3
OFFSET CHANGED FROM -3 TO -3
OFFSET CHANGED FROM -3 TO -3
OFFSET CHANGED FROM -3 TO -3
OFFSET CHANGED FROM -3 TO -3
OFFSET CHANGED FROM -3 TO -3
OFFSET CHANGED FROM -3 TO -3
OFFSET CHANGED FROM -3 TO -3
OFFSET CHANGED FROM -3 TO -9
OFFSET CHANGED FROM -9 TO -3
OFFSET CHANGED FROM -3 TO -3
OFFSET CHANGED FROM -3 TO -9
OFFSET CHANGED FROM -9 TO -6
OFFSET CHANGED FROM -6 TO -9
OFFSET CHANGED FROM -9 TO -9
OFFSET CHANGED FROM -9 TO -6
OFFSET CHANGED FROM -6 TO -3
OFFSET CHANGED FROM -3 TO -3
OFFSET CHANGED FROM -3 TO -15
OFFSET CHANGED FROM -15 TO -12
OFFSET CHANGED FROM -12 TO -12
OFFSET CHANGED FROM -12 TO -6
OFFSET CHANGED FROM -6 TO -3
OFFSET CHANGED FROM -3 TO -3
OFFSET CHANGED FROM -3 TO -3
OFFSET CHANGED FROM -3 TO -3
OFFSET CHANGED FROM -3 TO -6
OFFSET CHANGED FROM -6 TO -15
OFFSET CHANGED FROM -15 TO -18
OFFSET CHANGED FROM -18 TO -3
OFFSET CHANGED FROM -3 TO -3
OFFSET CHANGED FROM -3 TO -3
OFFSET CHANGED FROM -3 TO -6
OFFSET CHANGED FROM -6 TO -3
OFFSET CHANGED FROM -3 TO -9
OFFSET CHANGED FROM -9 TO -9
OFFSET CHANGED FROM -9 TO -3
OFFSET CHANGED FROM -3 TO -12
OFFSET CHANGED FROM -12 TO -12
OFFSET CHANGED FROM -12 TO -3
OFFSET CHANGED FROM -3 TO -15
OFFSET CHANGED FROM -15 TO -12
OFFSET CHANGED FROM -12 TO -12
OFFSET CHANGED FROM -12 TO -12
OFFSET CHANGED FROM -12 TO -6
OFFSET CHANGED FROM -6 TO -3
OFFSET CHANGED FROM -3 TO -3
OFFSET CHANGED FROM -3 TO -3
OFFSET CHANGED FROM -3 TO -3
OFFSET CHANGED FROM -3 TO -3
OFFSET CHANGED FROM -3 TO -3
OFFSET CHANGED FROM -3 TO -3
OFFSET CHANGED FROM -3 TO -3
OFFSET CHANGED FROM -3 TO -3
OFFSET CHANGED FROM -3 TO -3
OFFSET CHANGED FROM -3 TO -3
OFFSET CHANGED FROM -3 TO -3
OFFSET CHANGED FROM -3 TO -3
OFFSET CHANGED FROM -3 TO -3
OFFSET CHANGED FROM -3 TO -9
OFFSET CHANGED FROM -9 TO -9
OFFSET CHANGED FROM -9 TO -6
OFFSET CHANGED FROM -6 TO -6
OFFSET CHANGED FROM -6 TO -9
OFFSET CHANGED FROM -9 TO -9
OFFSET CHANGED FROM -9 TO -3
OFFSET CHANGED FROM -3 TO -3
OFFSET CHANGED FROM -3 TO -9
OFFSET CHANGED FROM -9 TO -15
OFFSET CHANGED FROM -15 TO -15
OFFSET CHANGED FROM -15 TO -3
OFFSET CHANGED FROM -3 TO -3
OFFSET CHANGED FROM -3 TO -3
OFFSET CHANGED FROM -3 TO -3
OFFSET CHANGED FROM -3 TO -3
OFFSET CHANGED FROM -3 TO -3
OFFSET CHANGED FROM -3 TO -3
OFFSET CHANGED FROM -3 TO -3
OFFSET CHANGED FROM -3 TO -9
OFFSET CHANGED FROM -9 TO -3
OFFSET CHANGED FROM -3 TO -3
OFFSET CHANGED FROM -3 TO -6
OFFSET CHANGED FROM -6 TO -6
OFFSET CHANGED FROM -6 TO -3
OFFSET CHANGED FROM -3 TO -9
OFFSET CHANGED FROM -9 TO -9
OFFSET CHANGED FROM -9 TO -3
OFFSET CHANGED FROM -3 TO -15
OFFSET CHANGED FROM -15 TO -9
OFFSET CHANGED FROM -9 TO -9
OFFSET CHANGED FROM -9 TO -3
OFFSET CHANGED FROM -3 TO -3
OFFSET CHANGED FROM -3 TO -12
OFFSET CHANGED FROM -12 TO -9
OFFSET CHANGED FROM -9 TO -3
OFFSET CHANGED FROM -3 TO -15
OFFSET CHANGED FROM -15 TO -12
OFFSET CHANGED FROM -12 TO -9
OFFSET CHANGED FROM -9 TO -12
OFFSET CHANGED FROM -12 TO -9
OFFSET CHANGED FROM -9 TO -6
OFFSET CHANGED FROM -6 TO -12
OFFSET CHANGED FROM -12 TO -9
OFFSET CHANGED FROM -9 TO -9
OFFSET CHANGED FROM -9 TO -9
OFFSET CHANGED FROM -9 TO -3
OFFSET CHANGED FROM -3 TO -3
OFFSET CHANGED FROM -3 TO -9
OFFSET CHANGED FROM -9 TO -12
OFFSET CHANGED FROM -12 TO -6
OFFSET CHANGED FROM -6 TO -12
OFFSET CHANGED FROM -12 TO -12
OFFSET CHANGED FROM -12 TO -3
OFFSET CHANGED FROM -3 TO -3
OFFSET CHANGED FROM -3 TO -3
OFFSET CHANGED FROM -3 TO -3
OFFSET CHANGED FROM -3 TO -3
OFFSET CHANGED FROM -3 TO -3
OFFSET CHANGED FROM -3 TO -9
OFFSET CHANGED FROM -9 TO -6
OFFSET CHANGED FROM -6 TO -3
OFFSET CHANGED FROM -3 TO -9
OFFSET CHANGED FROM -9 TO -9
OFFSET CHANGED FROM -9 TO -9
OFFSET CHANGED FROM -9 TO -3
OFFSET CHANGED FROM -3 TO -3
OFFSET CHANGED FROM -3 TO -3
OFFSET CHANGED FROM -3 TO -6
OFFSET CHANGED FROM -6 TO -6
OFFSET CHANGED FROM -6 TO -9
OFFSET CHANGED FROM -9 TO -9
OFFSET CHANGED FROM -9 TO -9
OFFSET CHANGED FROM -9 TO -3
OFFSET CHANGED FROM -3 TO -3
OFFSET CHANGED FROM -3 TO -15
OFFSET CHANGED FROM -15 TO -9
OFFSET CHANGED FROM -9 TO -3
OFFSET CHANGED FROM -3 TO -9
OFFSET CHANGED FROM -9 TO -6
OFFSET CHANGED FROM -6 TO -15
OFFSET CHANGED FROM -15 TO -9
OFFSET CHANGED FROM -9 TO -3
OFFSET CHANGED FROM -3 TO -15
OFFSET CHANGED FROM -15 TO -18
OFFSET CHANGED FROM -18 TO -18
OFFSET CHANGED FROM -18 TO -18
OFFSET CHANGED FROM -18 TO -12
OFFSET CHANGED FROM -12 TO -12
OFFSET CHANGED FROM -12 TO -12
OFFSET CHANGED FROM -12 TO -6
OFFSET CHANGED FROM -6 TO -3
OFFSET CHANGED FROM -3 TO -12
OFFSET CHANGED FROM -12 TO -15
OFFSET CHANGED FROM -15 TO -9
OFFSET CHANGED FROM -9 TO -6
OFFSET CHANGED FROM -6 TO -3
OFFSET CHANGED FROM -3 TO -3
OFFSET CHANGED FROM -3 TO -3
OFFSET CHANGED FROM -3 TO -12
OFFSET CHANGED FROM -12 TO -3
OFFSET CHANGED FROM -3 TO -3
OFFSET CHANGED FROM -3 TO -3
OFFSET CHANGED FROM -3 TO -3
OFFSET CHANGED FROM -3 TO -3
OFFSET CHANGED FROM -3 TO -3
OFFSET CHANGED FROM -3 TO -3
OFFSET CHANGED FROM -3 TO -9
OFFSET CHANGED FROM -9 TO -6
OFFSET CHANGED FROM -6 TO -3
OFFSET CHANGED FROM -3 TO -9
OFFSET CHANGED FROM -9 TO -9
OFFSET CHANGED FROM -9 TO -3
OFFSET CHANGED FROM -3 TO -6
OFFSET CHANGED FROM -6 TO -6
OFFSET CHANGED FROM -6 TO -3
OFFSET CHANGED FROM -3 TO -15
OFFSET CHANGED FROM -15 TO -9
OFFSET CHANGED FROM -9 TO -3
OFFSET CHANGED FROM -3 TO -15
OFFSET CHANGED FROM -15 TO -12
OFFSET CHANGED FROM -12 TO -3
OFFSET CHANGED FROM -3 TO -3
OFFSET CHANGED FROM -3 TO -3
OFFSET CHANGED FROM -3 TO -3
OFFSET CHANGED FROM -3 TO -3
OFFSET CHANGED FROM -3 TO -3
OFFSET CHANGED FROM -3 TO -3
OFFSET CHANGED FROM -3 TO -3
OFFSET CHANGED FROM -3 TO -3
OFFSET CHANGED FROM -3 TO -6
OFFSET CHANGED FROM -6 TO -6
OFFSET CHANGED FROM -6 TO -12
OFFSET CHANGED FROM -12 TO -9
OFFSET CHANGED FROM -9 TO -3
OFFSET CHANGED FROM -3 TO -15
OFFSET CHANGED FROM -15 TO -12
OFFSET CHANGED FROM -12 TO -6
OFFSET CHANGED FROM -6 TO -3
OFFSET CHANGED FROM -3 TO -3
OFFSET CHANGED FROM -3 TO -6
OFFSET CHANGED FROM -6 TO -3
OFFSET CHANGED FROM -3 TO -12
OFFSET CHANGED FROM -12 TO -9
OFFSET CHANGED FROM -9 TO -3
OFFSET CHANGED FROM -3 TO -3
OFFSET CHANGED FROM -3 TO -3
OFFSET CHANGED FROM -3 TO -3
OFFSET CHANGED FROM -3 TO -3
OFFSET CHANGED FROM -3 TO -3
OFFSET CHANGED FROM -3 TO -3
OFFSET CHANGED FROM -3 TO -3
OFFSET CHANGED FROM -3 TO -3
OFFSET CHANGED FROM -3 TO -3
OFFSET CHANGED FROM -3 TO -9
OFFSET CHANGED FROM -9 TO -9
OFFSET CHANGED FROM -9 TO -6
OFFSET CHANGED FROM -6 TO -6
OFFSET CHANGED FROM -6 TO -3
OFFSET CHANGED FROM -3 TO -3
OFFSET CHANGED FROM -3 TO -3
OFFSET CHANGED FROM -3 TO -9
OFFSET CHANGED FROM -9 TO -3
OFFSET CHANGED FROM -3 TO -15
OFFSET CHANGED FROM -15 TO -12
OFFSET CHANGED FROM -12 TO -6
OFFSET CHANGED FROM -6 TO -15
OFFSET CHANGED FROM -15 TO -12
OFFSET CHANGED FROM -12 TO -6
OFFSET CHANGED FROM -6 TO -3
OFFSET CHANGED FROM -3 TO -3
OFFSET CHANGED FROM -3 TO -3
OFFSET CHANGED FROM -3 TO -3
OFFSET CHANGED FROM -3 TO -3
OFFSET CHANGED FROM -3 TO -3
OFFSET CHANGED FROM -3 TO -3
OFFSET CHANGED FROM -3 TO -3
OFFSET CHANGED FROM -3 TO -6
OFFSET CHANGED FROM -6 TO -6
OFFSET CHANGED FROM -6 TO -12
OFFSET CHANGED FROM -12 TO -9
OFFSET CHANGED FROM -9 TO -3
OFFSET CHANGED FROM -3 TO -12
OFFSET CHANGED FROM -12 TO -12
OFFSET CHANGED FROM -12 TO -6
OFFSET CHANGED FROM -6 TO -12
OFFSET CHANGED FROM -12 TO -12
OFFSET CHANGED FROM -12 TO -3
OFFSET CHANGED FROM -3 TO -6
OFFSET CHANGED FROM -6 TO -3
OFFSET CHANGED FROM -3 TO -3
OFFSET CHANGED FROM -3 TO -3
OFFSET CHANGED FROM -3 TO -6
OFFSET CHANGED FROM -6 TO -3
OFFSET CHANGED FROM -3 TO -6
OFFSET CHANGED FROM -6 TO -3
OFFSET CHANGED FROM -3 TO -3
OFFSET CHANGED FROM -3 TO -3
OFFSET CHANGED FROM -3 TO -3
OFFSET CHANGED FROM -3 TO -3
OFFSET CHANGED FROM -3 TO -3
OFFSET CHANGED FROM -3 TO -3
OFFSET CHANGED FROM -3 TO -3
OFFSET CHANGED FROM -3 TO -3
OFFSET CHANGED FROM -3 TO -3
OFFSET CHANGED FROM -3 TO -6
OFFSET CHANGED FROM -6 TO -3
OFFSET CHANGED FROM -3 TO -6
OFFSET CHANGED FROM -6 TO -3
OFFSET CHANGED FROM -3 TO -3
OFFSET CHANGED FROM -3 TO -3
OFFSET CHANGED FROM -3 TO -3
OFFSET CHANGED FROM -3 TO -3
OFFSET CHANGED FROM -3 TO -3
OFFSET CHANGED FROM -3 TO -9
OFFSET CHANGED FROM -9 TO -9
OFFSET CHANGED FROM -9 TO -3
OFFSET CHANGED FROM -3 TO -3
OFFSET CHANGED FROM -3 TO -3
OFFSET CHANGED FROM -3 TO -3
OFFSET CHANGED FROM -3 TO -3
OFFSET CHANGED FROM -3 TO -3
OFFSET CHANGED FROM -3 TO -3
OFFSET CHANGED FROM -3 TO -15
OFFSET CHANGED FROM -15 TO -9
OFFSET CHANGED FROM -9 TO -9
OFFSET CHANGED FROM -9 TO -3
OFFSET CHANGED FROM -3 TO -15
OFFSET CHANGED FROM -15 TO -3
OFFSET CHANGED FROM -3 TO -3
OFFSET CHANGED FROM -3 TO -6
OFFSET CHANGED FROM -6 TO -9
OFFSET CHANGED FROM -9 TO -3
OFFSET CHANGED FROM -3 TO -3
OFFSET CHANGED FROM -3 TO -9
OFFSET CHANGED FROM -9 TO -6
OFFSET CHANGED FROM -6 TO -3
OFFSET CHANGED FROM -3 TO -3
OFFSET CHANGED FROM -3 TO -9
OFFSET CHANGED FROM -9 TO -6
Heartbeat CPU 0 instructions: 20000002 cycles: 8665717 heartbeat IPC: 2.00174 cumulative IPC: 2.30795 (Simulation time: 0 hr 1 min 1 sec) 
OFFSET CHANGED FROM -6 TO -6
OFFSET CHANGED FROM -6 TO -9
OFFSET CHANGED FROM -9 TO -9
OFFSET CHANGED FROM -9 TO -6
OFFSET CHANGED FROM -6 TO -3
OFFSET CHANGED FROM -3 TO -12
OFFSET CHANGED FROM -12 TO -12
OFFSET CHANGED FROM -12 TO -15
OFFSET CHANGED FROM -15 TO -6
OFFSET CHANGED FROM -6 TO -3
OFFSET CHANGED FROM -3 TO -3
OFFSET CHANGED FROM -3 TO -3
OFFSET CHANGED FROM -3 TO -15
OFFSET CHANGED FROM -15 TO -12
OFFSET CHANGED FROM -12 TO -6
OFFSET CHANGED FROM -6 TO -12
OFFSET CHANGED FROM -12 TO -9
OFFSET CHANGED FROM -9 TO -3
OFFSET CHANGED FROM -3 TO -15
OFFSET CHANGED FROM -15 TO -3
OFFSET CHANGED FROM -3 TO -3
OFFSET CHANGED FROM -3 TO -9
OFFSET CHANGED FROM -9 TO -9
OFFSET CHANGED FROM -9 TO -3
OFFSET CHANGED FROM -3 TO -3
OFFSET CHANGED FROM -3 TO -3
OFFSET CHANGED FROM -3 TO -3
OFFSET CHANGED FROM -3 TO -3
OFFSET CHANGED FROM -3 TO -3
OFFSET CHANGED FROM -3 TO -3
OFFSET CHANGED FROM -3 TO -3
OFFSET CHANGED FROM -3 TO -3
OFFSET CHANGED FROM -3 TO -3
OFFSET CHANGED FROM -3 TO -3
OFFSET CHANGED FROM -3 TO -15
OFFSET CHANGED FROM -15 TO -3
OFFSET CHANGED FROM -3 TO -3
OFFSET CHANGED FROM -3 TO -9
OFFSET CHANGED FROM -9 TO -3
OFFSET CHANGED FROM -3 TO -12
OFFSET CHANGED FROM -12 TO -12
OFFSET CHANGED FROM -12 TO -12
OFFSET CHANGED FROM -12 TO -12
OFFSET CHANGED FROM -12 TO -12
OFFSET CHANGED FROM -12 TO -9
OFFSET CHANGED FROM -9 TO -6
OFFSET CHANGED FROM -6 TO -3
OFFSET CHANGED FROM -3 TO -3
OFFSET CHANGED FROM -3 TO -3
OFFSET CHANGED FROM -3 TO -3
OFFSET CHANGED FROM -3 TO -3
OFFSET CHANGED FROM -3 TO -3
OFFSET CHANGED FROM -3 TO -3
OFFSET CHANGED FROM -3 TO -6
OFFSET CHANGED FROM -6 TO -3
OFFSET CHANGED FROM -3 TO -6
OFFSET CHANGED FROM -6 TO -6
OFFSET CHANGED FROM -6 TO -3
OFFSET CHANGED FROM -3 TO -3
OFFSET CHANGED FROM -3 TO -9
OFFSET CHANGED FROM -9 TO -9
OFFSET CHANGED FROM -9 TO -9
OFFSET CHANGED FROM -9 TO -3
OFFSET CHANGED FROM -3 TO -3
OFFSET CHANGED FROM -3 TO -6
OFFSET CHANGED FROM -6 TO -3
OFFSET CHANGED FROM -3 TO -9
OFFSET CHANGED FROM -9 TO -3
OFFSET CHANGED FROM -3 TO -3
OFFSET CHANGED FROM -3 TO -9
OFFSET CHANGED FROM -9 TO -6
OFFSET CHANGED FROM -6 TO -3
OFFSET CHANGED FROM -3 TO -3
OFFSET CHANGED FROM -3 TO -3
OFFSET CHANGED FROM -3 TO -3
OFFSET CHANGED FROM -3 TO -9
OFFSET CHANGED FROM -9 TO -12
OFFSET CHANGED FROM -12 TO -15
OFFSET CHANGED FROM -15 TO -15
OFFSET CHANGED FROM -15 TO -3
OFFSET CHANGED FROM -3 TO -3
OFFSET CHANGED FROM -3 TO -3
OFFSET CHANGED FROM -3 TO -3
OFFSET CHANGED FROM -3 TO -15
OFFSET CHANGED FROM -15 TO -12
OFFSET CHANGED FROM -12 TO -12
OFFSET CHANGED FROM -12 TO -3
OFFSET CHANGED FROM -3 TO -12
OFFSET CHANGED FROM -12 TO -12
OFFSET CHANGED FROM -12 TO -15
OFFSET CHANGED FROM -15 TO -15
OFFSET CHANGED FROM -15 TO -9
OFFSET CHANGED FROM -9 TO -3
OFFSET CHANGED FROM -3 TO -9
OFFSET CHANGED FROM -9 TO -3
OFFSET CHANGED FROM -3 TO -3
OFFSET CHANGED FROM -3 TO -3
OFFSET CHANGED FROM -3 TO -3
OFFSET CHANGED FROM -3 TO -3
OFFSET CHANGED FROM -3 TO -3
OFFSET CHANGED FROM -3 TO -9
OFFSET CHANGED FROM -9 TO -6
OFFSET CHANGED FROM -6 TO -3
OFFSET CHANGED FROM -3 TO -9
OFFSET CHANGED FROM -9 TO -6
OFFSET CHANGED FROM -6 TO -3
OFFSET CHANGED FROM -3 TO -3
OFFSET CHANGED FROM -3 TO -3
OFFSET CHANGED FROM -3 TO -9
OFFSET CHANGED FROM -9 TO -3
OFFSET CHANGED FROM -3 TO -12
OFFSET CHANGED FROM -12 TO -9
OFFSET CHANGED FROM -9 TO -3
OFFSET CHANGED FROM -3 TO -15
OFFSET CHANGED FROM -15 TO -15
OFFSET CHANGED FROM -15 TO -3
OFFSET CHANGED FROM -3 TO -15
OFFSET CHANGED FROM -15 TO -12
OFFSET CHANGED FROM -12 TO -3
OFFSET CHANGED FROM -3 TO -9
OFFSET CHANGED FROM -9 TO -9
OFFSET CHANGED FROM -9 TO -6
OFFSET CHANGED FROM -6 TO -12
OFFSET CHANGED FROM -12 TO -12
OFFSET CHANGED FROM -12 TO -6
OFFSET CHANGED FROM -6 TO -3
OFFSET CHANGED FROM -3 TO -3
OFFSET CHANGED FROM -3 TO -3
OFFSET CHANGED FROM -3 TO -3
OFFSET CHANGED FROM -3 TO -3
OFFSET CHANGED FROM -3 TO -3
OFFSET CHANGED FROM -3 TO -3
OFFSET CHANGED FROM -3 TO -3
OFFSET CHANGED FROM -3 TO -6
OFFSET CHANGED FROM -6 TO -3
OFFSET CHANGED FROM -3 TO -3
OFFSET CHANGED FROM -3 TO -3
OFFSET CHANGED FROM -3 TO -3
OFFSET CHANGED FROM -3 TO -3
OFFSET CHANGED FROM -3 TO -3
OFFSET CHANGED FROM -3 TO -3
OFFSET CHANGED FROM -3 TO -3
OFFSET CHANGED FROM -3 TO -3
OFFSET CHANGED FROM -3 TO -3
OFFSET CHANGED FROM -3 TO -6
OFFSET CHANGED FROM -6 TO -3
OFFSET CHANGED FROM -3 TO -3
OFFSET CHANGED FROM -3 TO -9
OFFSET CHANGED FROM -9 TO -3
OFFSET CHANGED FROM -3 TO -3
OFFSET CHANGED FROM -3 TO -6
OFFSET CHANGED FROM -6 TO -9
OFFSET CHANGED FROM -9 TO -3
OFFSET CHANGED FROM -3 TO -3
OFFSET CHANGED FROM -3 TO -9
OFFSET CHANGED FROM -9 TO -6
OFFSET CHANGED FROM -6 TO -3
OFFSET CHANGED FROM -3 TO -9
OFFSET CHANGED FROM -9 TO -9
OFFSET CHANGED FROM -9 TO -3
OFFSET CHANGED FROM -3 TO -9
OFFSET CHANGED FROM -9 TO -9
OFFSET CHANGED FROM -9 TO -6
OFFSET CHANGED FROM -6 TO -3
OFFSET CHANGED FROM -3 TO -3
OFFSET CHANGED FROM -3 TO -3
OFFSET CHANGED FROM -3 TO -3
OFFSET CHANGED FROM -3 TO -3
OFFSET CHANGED FROM -3 TO -3
OFFSET CHANGED FROM -3 TO -3
OFFSET CHANGED FROM -3 TO -9
OFFSET CHANGED FROM -9 TO -3
OFFSET CHANGED FROM -3 TO -3
OFFSET CHANGED FROM -3 TO -12
OFFSET CHANGED FROM -12 TO -12
OFFSET CHANGED FROM -12 TO -6
OFFSET CHANGED FROM -6 TO -3
OFFSET CHANGED FROM -3 TO -9
OFFSET CHANGED FROM -9 TO -6
OFFSET CHANGED FROM -6 TO -3
OFFSET CHANGED FROM -3 TO -3
OFFSET CHANGED FROM -3 TO -3
OFFSET CHANGED FROM -3 TO -3
OFFSET CHANGED FROM -3 TO -3
OFFSET CHANGED FROM -3 TO -9
OFFSET CHANGED FROM -9 TO -6
OFFSET CHANGED FROM -6 TO -3
OFFSET CHANGED FROM -3 TO -3
OFFSET CHANGED FROM -3 TO -3
OFFSET CHANGED FROM -3 TO -3
OFFSET CHANGED FROM -3 TO -3
OFFSET CHANGED FROM -3 TO -3
OFFSET CHANGED FROM -3 TO -3
OFFSET CHANGED FROM -3 TO -3
OFFSET CHANGED FROM -3 TO -9
OFFSET CHANGED FROM -9 TO -3
OFFSET CHANGED FROM -3 TO -3
OFFSET CHANGED FROM -3 TO -9
OFFSET CHANGED FROM -9 TO -3
OFFSET CHANGED FROM -3 TO -3
OFFSET CHANGED FROM -3 TO -3
OFFSET CHANGED FROM -3 TO -9
OFFSET CHANGED FROM -9 TO -9
OFFSET CHANGED FROM -9 TO -3
OFFSET CHANGED FROM -3 TO -3
OFFSET CHANGED FROM -3 TO -9
OFFSET CHANGED FROM -9 TO -6
OFFSET CHANGED FROM -6 TO -3
OFFSET CHANGED FROM -3 TO -15
OFFSET CHANGED FROM -15 TO -9
OFFSET CHANGED FROM -9 TO -3
OFFSET CHANGED FROM -3 TO -9
OFFSET CHANGED FROM -9 TO -9
OFFSET CHANGED FROM -9 TO -3
OFFSET CHANGED FROM -3 TO -3
OFFSET CHANGED FROM -3 TO -9
OFFSET CHANGED FROM -9 TO -9
OFFSET CHANGED FROM -9 TO -3
OFFSET CHANGED FROM -3 TO -3
OFFSET CHANGED FROM -3 TO -3
OFFSET CHANGED FROM -3 TO -3
OFFSET CHANGED FROM -3 TO -3
OFFSET CHANGED FROM -3 TO -3
OFFSET CHANGED FROM -3 TO -3
OFFSET CHANGED FROM -3 TO -3
OFFSET CHANGED FROM -3 TO -9
OFFSET CHANGED FROM -9 TO -6
OFFSET CHANGED FROM -6 TO -3
OFFSET CHANGED FROM -3 TO -3
OFFSET CHANGED FROM -3 TO -6
OFFSET CHANGED FROM -6 TO -3
OFFSET CHANGED FROM -3 TO -9
OFFSET CHANGED FROM -9 TO -9
OFFSET CHANGED FROM -9 TO -3
OFFSET CHANGED FROM -3 TO -15
OFFSET CHANGED FROM -15 TO -15
OFFSET CHANGED FROM -15 TO -3
OFFSET CHANGED FROM -3 TO -9
OFFSET CHANGED FROM -9 TO -9
OFFSET CHANGED FROM -9 TO -9
OFFSET CHANGED FROM -9 TO -9
OFFSET CHANGED FROM -9 TO -3
OFFSET CHANGED FROM -3 TO -3
OFFSET CHANGED FROM -3 TO -3
OFFSET CHANGED FROM -3 TO -3
OFFSET CHANGED FROM -3 TO -3
OFFSET CHANGED FROM -3 TO -3
OFFSET CHANGED FROM -3 TO -3
OFFSET CHANGED FROM -3 TO -6
OFFSET CHANGED FROM -6 TO -3
OFFSET CHANGED FROM -3 TO -3
OFFSET CHANGED FROM -3 TO -3
OFFSET CHANGED FROM -3 TO -9
OFFSET CHANGED FROM -9 TO -6
OFFSET CHANGED FROM -6 TO -3
OFFSET CHANGED FROM -3 TO -9
OFFSET CHANGED FROM -9 TO -9
OFFSET CHANGED FROM -9 TO -3
OFFSET CHANGED FROM -3 TO -3
OFFSET CHANGED FROM -3 TO -3
OFFSET CHANGED FROM -3 TO -9
OFFSET CHANGED FROM -9 TO -3
OFFSET CHANGED FROM -3 TO -3
OFFSET CHANGED FROM -3 TO -3
OFFSET CHANGED FROM -3 TO -3
OFFSET CHANGED FROM -3 TO -3
OFFSET CHANGED FROM -3 TO -3
OFFSET CHANGED FROM -3 TO -3
OFFSET CHANGED FROM -3 TO -6
OFFSET CHANGED FROM -6 TO -3
OFFSET CHANGED FROM -3 TO -3
OFFSET CHANGED FROM -3 TO -3
OFFSET CHANGED FROM -3 TO -6
OFFSET CHANGED FROM -6 TO -6
OFFSET CHANGED FROM -6 TO -3
OFFSET CHANGED FROM -3 TO -9
OFFSET CHANGED FROM -9 TO -9
OFFSET CHANGED FROM -9 TO -3
OFFSET CHANGED FROM -3 TO -3
OFFSET CHANGED FROM -3 TO -3
OFFSET CHANGED FROM -3 TO -3
OFFSET CHANGED FROM -3 TO -3
OFFSET CHANGED FROM -3 TO -9
OFFSET CHANGED FROM -9 TO -6
OFFSET CHANGED FROM -6 TO -3
OFFSET CHANGED FROM -3 TO -6
OFFSET CHANGED FROM -6 TO -3
OFFSET CHANGED FROM -3 TO -3
OFFSET CHANGED FROM -3 TO -3
OFFSET CHANGED FROM -3 TO -3
OFFSET CHANGED FROM -3 TO -3
OFFSET CHANGED FROM -3 TO -3
OFFSET CHANGED FROM -3 TO -3
OFFSET CHANGED FROM -3 TO -12
OFFSET CHANGED FROM -12 TO -9
OFFSET CHANGED FROM -9 TO -15
OFFSET CHANGED FROM -15 TO -12
OFFSET CHANGED FROM -12 TO -6
OFFSET CHANGED FROM -6 TO -3
OFFSET CHANGED FROM -3 TO -3
OFFSET CHANGED FROM -3 TO -9
OFFSET CHANGED FROM -9 TO -9
OFFSET CHANGED FROM -9 TO -6
OFFSET CHANGED FROM -6 TO -9
OFFSET CHANGED FROM -9 TO -9
OFFSET CHANGED FROM -9 TO -3
OFFSET CHANGED FROM -3 TO -15
OFFSET CHANGED FROM -15 TO -15
OFFSET CHANGED FROM -15 TO -6
OFFSET CHANGED FROM -6 TO -12
OFFSET CHANGED FROM -12 TO -9
OFFSET CHANGED FROM -9 TO -3
OFFSET CHANGED FROM -3 TO -9
OFFSET CHANGED FROM -9 TO -6
OFFSET CHANGED FROM -6 TO -3
OFFSET CHANGED FROM -3 TO -3
OFFSET CHANGED FROM -3 TO -3
OFFSET CHANGED FROM -3 TO -6
OFFSET CHANGED FROM -6 TO -3
OFFSET CHANGED FROM -3 TO -6
OFFSET CHANGED FROM -6 TO -3
OFFSET CHANGED FROM -3 TO -3
OFFSET CHANGED FROM -3 TO -3
OFFSET CHANGED FROM -3 TO -3
OFFSET CHANGED FROM -3 TO -3
OFFSET CHANGED FROM -3 TO -3
OFFSET CHANGED FROM -3 TO -3
OFFSET CHANGED FROM -3 TO -3
OFFSET CHANGED FROM -3 TO -9
OFFSET CHANGED FROM -9 TO -9
OFFSET CHANGED FROM -9 TO -3
OFFSET CHANGED FROM -3 TO -3
OFFSET CHANGED FROM -3 TO -9
OFFSET CHANGED FROM -9 TO -3
OFFSET CHANGED FROM -3 TO -3
OFFSET CHANGED FROM -3 TO -3
OFFSET CHANGED FROM -3 TO -3
OFFSET CHANGED FROM -3 TO -3
OFFSET CHANGED FROM -3 TO -9
OFFSET CHANGED FROM -9 TO -9
OFFSET CHANGED FROM -9 TO -6
OFFSET CHANGED FROM -6 TO -3
OFFSET CHANGED FROM -3 TO -3
OFFSET CHANGED FROM -3 TO -18
OFFSET CHANGED FROM -18 TO -18
OFFSET CHANGED FROM -18 TO -3
OFFSET CHANGED FROM -3 TO -3
OFFSET CHANGED FROM -3 TO -6
OFFSET CHANGED FROM -6 TO -3
OFFSET CHANGED FROM -3 TO -3
OFFSET CHANGED FROM -3 TO -3
OFFSET CHANGED FROM -3 TO -3
OFFSET CHANGED FROM -3 TO -3
OFFSET CHANGED FROM -3 TO -3
OFFSET CHANGED FROM -3 TO -3
OFFSET CHANGED FROM -3 TO -3
OFFSET CHANGED FROM -3 TO -3
OFFSET CHANGED FROM -3 TO -3
OFFSET CHANGED FROM -3 TO -3
OFFSET CHANGED FROM -3 TO -3
OFFSET CHANGED FROM -3 TO -3
OFFSET CHANGED FROM -3 TO -3
OFFSET CHANGED FROM -3 TO -3
OFFSET CHANGED FROM -3 TO -3
OFFSET CHANGED FROM -3 TO -3
OFFSET CHANGED FROM -3 TO -3
OFFSET CHANGED FROM -3 TO -3
OFFSET CHANGED FROM -3 TO -3
OFFSET CHANGED FROM -3 TO -3
OFFSET CHANGED FROM -3 TO -3
OFFSET CHANGED FROM -3 TO -3
OFFSET CHANGED FROM -3 TO -3
OFFSET CHANGED FROM -3 TO -3
OFFSET CHANGED FROM -3 TO -6
OFFSET CHANGED FROM -6 TO -3
OFFSET CHANGED FROM -3 TO -3
OFFSET CHANGED FROM -3 TO -3
OFFSET CHANGED FROM -3 TO -3
OFFSET CHANGED FROM -3 TO -3
OFFSET CHANGED FROM -3 TO -3
OFFSET CHANGED FROM -3 TO -3
OFFSET CHANGED FROM -3 TO -3
OFFSET CHANGED FROM -3 TO -6
OFFSET CHANGED FROM -6 TO -3
OFFSET CHANGED FROM -3 TO -12
OFFSET CHANGED FROM -12 TO -3
OFFSET CHANGED FROM -3 TO -3
OFFSET CHANGED FROM -3 TO -3
OFFSET CHANGED FROM -3 TO -2
OFFSET CHANGED FROM -2 TO -6
Heartbeat CPU 0 instructions: 30000000 cycles: 13055186 heartbeat IPC: 2.27818 cumulative IPC: 2.29794 (Simulation time: 0 hr 1 min 32 sec) 
OFFSET CHANGED FROM -6 TO -3
OFFSET CHANGED FROM -3 TO -3
OFFSET CHANGED FROM -3 TO -3
OFFSET CHANGED FROM -3 TO -6
OFFSET CHANGED FROM -6 TO -6
OFFSET CHANGED FROM -6 TO -3
OFFSET CHANGED FROM -3 TO -9
OFFSET CHANGED FROM -9 TO -6
OFFSET CHANGED FROM -6 TO -3
OFFSET CHANGED FROM -3 TO -3
OFFSET CHANGED FROM -3 TO -12
OFFSET CHANGED FROM -12 TO -6
OFFSET CHANGED FROM -6 TO -6
OFFSET CHANGED FROM -6 TO -9
OFFSET CHANGED FROM -9 TO -6
OFFSET CHANGED FROM -6 TO -3
OFFSET CHANGED FROM -3 TO -3
OFFSET CHANGED FROM -3 TO -3
OFFSET CHANGED FROM -3 TO -3
OFFSET CHANGED FROM -3 TO -9
OFFSET CHANGED FROM -9 TO -9
OFFSET CHANGED FROM -9 TO -9
OFFSET CHANGED FROM -9 TO -9
OFFSET CHANGED FROM -9 TO -6
OFFSET CHANGED FROM -6 TO -3
OFFSET CHANGED FROM -3 TO -3
OFFSET CHANGED FROM -3 TO -3
OFFSET CHANGED FROM -3 TO -3
OFFSET CHANGED FROM -3 TO -3
OFFSET CHANGED FROM -3 TO -3
OFFSET CHANGED FROM -3 TO -3
OFFSET CHANGED FROM -3 TO -3
OFFSET CHANGED FROM -3 TO -3
OFFSET CHANGED FROM -3 TO -3
OFFSET CHANGED FROM -3 TO -15
OFFSET CHANGED FROM -15 TO -12
OFFSET CHANGED FROM -12 TO -6
OFFSET CHANGED FROM -6 TO -3
OFFSET CHANGED FROM -3 TO -12
OFFSET CHANGED FROM -12 TO -3
OFFSET CHANGED FROM -3 TO -12
OFFSET CHANGED FROM -12 TO -9
OFFSET CHANGED FROM -9 TO -6
OFFSET CHANGED FROM -6 TO -3
OFFSET CHANGED FROM -3 TO -3
OFFSET CHANGED FROM -3 TO -3
OFFSET CHANGED FROM -3 TO -3
OFFSET CHANGED FROM -3 TO -3
OFFSET CHANGED FROM -3 TO -3
OFFSET CHANGED FROM -3 TO -3
OFFSET CHANGED FROM -3 TO -3
OFFSET CHANGED FROM -3 TO -3
OFFSET CHANGED FROM -3 TO -6
OFFSET CHANGED FROM -6 TO -9
OFFSET CHANGED FROM -9 TO -3
OFFSET CHANGED FROM -3 TO -3
OFFSET CHANGED FROM -3 TO -3
OFFSET CHANGED FROM -3 TO -3
OFFSET CHANGED FROM -3 TO -6
OFFSET CHANGED FROM -6 TO -9
OFFSET CHANGED FROM -9 TO -9
OFFSET CHANGED FROM -9 TO -9
OFFSET CHANGED FROM -9 TO -6
OFFSET CHANGED FROM -6 TO -6
OFFSET CHANGED FROM -6 TO -3
OFFSET CHANGED FROM -3 TO -9
OFFSET CHANGED FROM -9 TO -9
OFFSET CHANGED FROM -9 TO -12
OFFSET CHANGED FROM -12 TO -3
OFFSET CHANGED FROM -3 TO -6
OFFSET CHANGED FROM -6 TO -3
OFFSET CHANGED FROM -3 TO -3
OFFSET CHANGED FROM -3 TO -3
OFFSET CHANGED FROM -3 TO -3
OFFSET CHANGED FROM -3 TO -3
OFFSET CHANGED FROM -3 TO -3
OFFSET CHANGED FROM -3 TO -3
OFFSET CHANGED FROM -3 TO -3
OFFSET CHANGED FROM -3 TO -3
OFFSET CHANGED FROM -3 TO -3
OFFSET CHANGED FROM -3 TO -3
OFFSET CHANGED FROM -3 TO -3
OFFSET CHANGED FROM -3 TO -3
OFFSET CHANGED FROM -3 TO -3
OFFSET CHANGED FROM -3 TO -3
OFFSET CHANGED FROM -3 TO -3
OFFSET CHANGED FROM -3 TO -3
OFFSET CHANGED FROM -3 TO -3
OFFSET CHANGED FROM -3 TO -3
OFFSET CHANGED FROM -3 TO -3
OFFSET CHANGED FROM -3 TO -3
OFFSET CHANGED FROM -3 TO -3
OFFSET CHANGED FROM -3 TO -6
OFFSET CHANGED FROM -6 TO -6
OFFSET CHANGED FROM -6 TO -3
OFFSET CHANGED FROM -3 TO -3
OFFSET CHANGED FROM -3 TO -6
OFFSET CHANGED FROM -6 TO -6
OFFSET CHANGED FROM -6 TO -6
Heartbeat CPU 0 instructions: 40000002 cycles: 16793498 heartbeat IPC: 2.675 cumulative IPC: 2.38187 (Simulation time: 0 hr 2 min 1 sec) 
OFFSET CHANGED FROM -6 TO -9
OFFSET CHANGED FROM -9 TO -9
OFFSET CHANGED FROM -9 TO -2
OFFSET CHANGED FROM -2 TO -3
OFFSET CHANGED FROM -3 TO -9
OFFSET CHANGED FROM -9 TO -3
OFFSET CHANGED FROM -3 TO -3
OFFSET CHANGED FROM -3 TO -2
OFFSET CHANGED FROM -2 TO -3
OFFSET CHANGED FROM -3 TO -3
OFFSET CHANGED FROM -3 TO -9
OFFSET CHANGED FROM -9 TO -6
OFFSET CHANGED FROM -6 TO -6
OFFSET CHANGED FROM -6 TO -6
OFFSET CHANGED FROM -6 TO -6
OFFSET CHANGED FROM -6 TO -3
OFFSET CHANGED FROM -3 TO -3
OFFSET CHANGED FROM -3 TO -3
OFFSET CHANGED FROM -3 TO -3
OFFSET CHANGED FROM -3 TO -12
OFFSET CHANGED FROM -12 TO -6
OFFSET CHANGED FROM -6 TO -3
OFFSET CHANGED FROM -3 TO -3
OFFSET CHANGED FROM -3 TO -3
OFFSET CHANGED FROM -3 TO -3
OFFSET CHANGED FROM -3 TO -9
OFFSET CHANGED FROM -9 TO -6
OFFSET CHANGED FROM -6 TO -3
OFFSET CHANGED FROM -3 TO -3
OFFSET CHANGED FROM -3 TO -15
OFFSET CHANGED FROM -15 TO -3
OFFSET CHANGED FROM -3 TO -3
OFFSET CHANGED FROM -3 TO -3
OFFSET CHANGED FROM -3 TO -3
OFFSET CHANGED FROM -3 TO -3
OFFSET CHANGED FROM -3 TO -3
OFFSET CHANGED FROM -3 TO -3
OFFSET CHANGED FROM -3 TO -6
OFFSET CHANGED FROM -6 TO -12
OFFSET CHANGED FROM -12 TO -6
OFFSET CHANGED FROM -6 TO -3
OFFSET CHANGED FROM -3 TO -15
OFFSET CHANGED FROM -15 TO -9
OFFSET CHANGED FROM -9 TO -3
OFFSET CHANGED FROM -3 TO -6
OFFSET CHANGED FROM -6 TO -3
OFFSET CHANGED FROM -3 TO -6
OFFSET CHANGED FROM -6 TO -9
OFFSET CHANGED FROM -9 TO -3
OFFSET CHANGED FROM -3 TO -3
OFFSET CHANGED FROM -3 TO -9
OFFSET CHANGED FROM -9 TO -12
OFFSET CHANGED FROM -12 TO -3
OFFSET CHANGED FROM -3 TO -3
OFFSET CHANGED FROM -3 TO -3
OFFSET CHANGED FROM -3 TO -3
OFFSET CHANGED FROM -3 TO -3
OFFSET CHANGED FROM -3 TO -9
OFFSET CHANGED FROM -9 TO -3
OFFSET CHANGED FROM -3 TO -3
OFFSET CHANGED FROM -3 TO -3
OFFSET CHANGED FROM -3 TO -3
OFFSET CHANGED FROM -3 TO -3
OFFSET CHANGED FROM -3 TO -3
OFFSET CHANGED FROM -3 TO -6
OFFSET CHANGED FROM -6 TO -3
OFFSET CHANGED FROM -3 TO -3
OFFSET CHANGED FROM -3 TO -6
OFFSET CHANGED FROM -6 TO -12
OFFSET CHANGED FROM -12 TO -9
OFFSET CHANGED FROM -9 TO -3
OFFSET CHANGED FROM -3 TO -3
OFFSET CHANGED FROM -3 TO -3
OFFSET CHANGED FROM -3 TO -3
OFFSET CHANGED FROM -3 TO -3
OFFSET CHANGED FROM -3 TO -3
OFFSET CHANGED FROM -3 TO -3
OFFSET CHANGED FROM -3 TO -3
OFFSET CHANGED FROM -3 TO -3
OFFSET CHANGED FROM -3 TO -3
OFFSET CHANGED FROM -3 TO -3
OFFSET CHANGED FROM -3 TO -3
OFFSET CHANGED FROM -3 TO -12
OFFSET CHANGED FROM -12 TO -12
OFFSET CHANGED FROM -12 TO -6
OFFSET CHANGED FROM -6 TO -15
OFFSET CHANGED FROM -15 TO -9
OFFSET CHANGED FROM -9 TO -3
OFFSET CHANGED FROM -3 TO -3
OFFSET CHANGED FROM -3 TO -3
OFFSET CHANGED FROM -3 TO -3
OFFSET CHANGED FROM -3 TO -3
OFFSET CHANGED FROM -3 TO -3
OFFSET CHANGED FROM -3 TO -3
OFFSET CHANGED FROM -3 TO -3
OFFSET CHANGED FROM -3 TO -3
OFFSET CHANGED FROM -3 TO -3
OFFSET CHANGED FROM -3 TO -9
OFFSET CHANGED FROM -9 TO -12
OFFSET CHANGED FROM -12 TO -3
OFFSET CHANGED FROM -3 TO -3
OFFSET CHANGED FROM -3 TO -12
OFFSET CHANGED FROM -12 TO -12
OFFSET CHANGED FROM -12 TO -3
OFFSET CHANGED FROM -3 TO -3
OFFSET CHANGED FROM -3 TO -9
OFFSET CHANGED FROM -9 TO -9
OFFSET CHANGED FROM -9 TO -3
OFFSET CHANGED FROM -3 TO -3
OFFSET CHANGED FROM -3 TO -3
OFFSET CHANGED FROM -3 TO -3
OFFSET CHANGED FROM -3 TO -12
OFFSET CHANGED FROM -12 TO -9
OFFSET CHANGED FROM -9 TO -3
OFFSET CHANGED FROM -3 TO -3
OFFSET CHANGED FROM -3 TO -3
OFFSET CHANGED FROM -3 TO -3
OFFSET CHANGED FROM -3 TO -3
OFFSET CHANGED FROM -3 TO -3
OFFSET CHANGED FROM -3 TO -3
OFFSET CHANGED FROM -3 TO -3
OFFSET CHANGED FROM -3 TO -15
OFFSET CHANGED FROM -15 TO -12
OFFSET CHANGED FROM -12 TO -3
OFFSET CHANGED FROM -3 TO -3
OFFSET CHANGED FROM -3 TO -12
OFFSET CHANGED FROM -12 TO -15
OFFSET CHANGED FROM -15 TO -12
OFFSET CHANGED FROM -12 TO -3
OFFSET CHANGED FROM -3 TO -15
OFFSET CHANGED FROM -15 TO -3
OFFSET CHANGED FROM -3 TO -3
OFFSET CHANGED FROM -3 TO -3
OFFSET CHANGED FROM -3 TO -3
OFFSET CHANGED FROM -3 TO -3
OFFSET CHANGED FROM -3 TO -3
OFFSET CHANGED FROM -3 TO -9
OFFSET CHANGED FROM -9 TO -9
OFFSET CHANGED FROM -9 TO -3
OFFSET CHANGED FROM -3 TO -3
OFFSET CHANGED FROM -3 TO -6
OFFSET CHANGED FROM -6 TO -3
OFFSET CHANGED FROM -3 TO -3
OFFSET CHANGED FROM -3 TO -3
OFFSET CHANGED FROM -3 TO -3
OFFSET CHANGED FROM -3 TO -3
OFFSET CHANGED FROM -3 TO -3
OFFSET CHANGED FROM -3 TO -3
OFFSET CHANGED FROM -3 TO -3
OFFSET CHANGED FROM -3 TO -12
OFFSET CHANGED FROM -12 TO -15
OFFSET CHANGED FROM -15 TO -3
OFFSET CHANGED FROM -3 TO -3
OFFSET CHANGED FROM -3 TO -3
OFFSET CHANGED FROM -3 TO -3
OFFSET CHANGED FROM -3 TO -3
OFFSET CHANGED FROM -3 TO -3
OFFSET CHANGED FROM -3 TO -3
OFFSET CHANGED FROM -3 TO -3
OFFSET CHANGED FROM -3 TO -3
OFFSET CHANGED FROM -3 TO -3
OFFSET CHANGED FROM -3 TO -3
OFFSET CHANGED FROM -3 TO -6
OFFSET CHANGED FROM -6 TO -3
OFFSET CHANGED FROM -3 TO -3
OFFSET CHANGED FROM -3 TO -3
OFFSET CHANGED FROM -3 TO -3
OFFSET CHANGED FROM -3 TO -3
OFFSET CHANGED FROM -3 TO -9
OFFSET CHANGED FROM -9 TO -9
OFFSET CHANGED FROM -9 TO -3
OFFSET CHANGED FROM -3 TO -9
OFFSET CHANGED FROM -9 TO -9
OFFSET CHANGED FROM -9 TO -3
OFFSET CHANGED FROM -3 TO -3
OFFSET CHANGED FROM -3 TO -9
OFFSET CHANGED FROM -9 TO -9
OFFSET CHANGED FROM -9 TO -3
OFFSET CHANGED FROM -3 TO -9
OFFSET CHANGED FROM -9 TO -6
OFFSET CHANGED FROM -6 TO -3
OFFSET CHANGED FROM -3 TO -3
OFFSET CHANGED FROM -3 TO -3
OFFSET CHANGED FROM -3 TO -3
OFFSET CHANGED FROM -3 TO -3
OFFSET CHANGED FROM -3 TO -3
OFFSET CHANGED FROM -3 TO -3
OFFSET CHANGED FROM -3 TO -3
OFFSET CHANGED FROM -3 TO -3
OFFSET CHANGED FROM -3 TO -3
OFFSET CHANGED FROM -3 TO -3
OFFSET CHANGED FROM -3 TO -3
OFFSET CHANGED FROM -3 TO -3
OFFSET CHANGED FROM -3 TO -3
OFFSET CHANGED FROM -3 TO -9
OFFSET CHANGED FROM -9 TO -6
OFFSET CHANGED FROM -6 TO -3
OFFSET CHANGED FROM -3 TO -3
OFFSET CHANGED FROM -3 TO -3
OFFSET CHANGED FROM -3 TO -3
OFFSET CHANGED FROM -3 TO -3
OFFSET CHANGED FROM -3 TO -6
OFFSET CHANGED FROM -6 TO -3
OFFSET CHANGED FROM -3 TO -3
OFFSET CHANGED FROM -3 TO -3
OFFSET CHANGED FROM -3 TO -3
OFFSET CHANGED FROM -3 TO -3
OFFSET CHANGED FROM -3 TO -3
OFFSET CHANGED FROM -3 TO -9
OFFSET CHANGED FROM -9 TO -9
OFFSET CHANGED FROM -9 TO -3
OFFSET CHANGED FROM -3 TO -3
OFFSET CHANGED FROM -3 TO -9
OFFSET CHANGED FROM -9 TO -3
OFFSET CHANGED FROM -3 TO -3
OFFSET CHANGED FROM -3 TO -3
OFFSET CHANGED FROM -3 TO -3
OFFSET CHANGED FROM -3 TO -3
OFFSET CHANGED FROM -3 TO -3
OFFSET CHANGED FROM -3 TO -3
OFFSET CHANGED FROM -3 TO -3
OFFSET CHANGED FROM -3 TO -3
OFFSET CHANGED FROM -3 TO -3
OFFSET CHANGED FROM -3 TO -3
OFFSET CHANGED FROM -3 TO -9
OFFSET CHANGED FROM -9 TO -3
OFFSET CHANGED FROM -3 TO -3
OFFSET CHANGED FROM -3 TO -9
OFFSET CHANGED FROM -9 TO -9
OFFSET CHANGED FROM -9 TO -6
OFFSET CHANGED FROM -6 TO -15
OFFSET CHANGED FROM -15 TO -3
OFFSET CHANGED FROM -3 TO -3
OFFSET CHANGED FROM -3 TO -3
OFFSET CHANGED FROM -3 TO -9
OFFSET CHANGED FROM -9 TO -6
OFFSET CHANGED FROM -6 TO -3
OFFSET CHANGED FROM -3 TO -9
OFFSET CHANGED FROM -9 TO -9
OFFSET CHANGED FROM -9 TO -3
OFFSET CHANGED FROM -3 TO -3
OFFSET CHANGED FROM -3 TO -9
OFFSET CHANGED FROM -9 TO -3
OFFSET CHANGED FROM -3 TO -12
OFFSET CHANGED FROM -12 TO -3
OFFSET CHANGED FROM -3 TO -3
OFFSET CHANGED FROM -3 TO -3
OFFSET CHANGED FROM -3 TO -3
OFFSET CHANGED FROM -3 TO -12
OFFSET CHANGED FROM -12 TO -3
OFFSET CHANGED FROM -3 TO -3
OFFSET CHANGED FROM -3 TO -3
OFFSET CHANGED FROM -3 TO -3
Heartbeat CPU 0 instructions: 50000002 cycles: 20878200 heartbeat IPC: 2.44816 cumulative IPC: 2.39484 (Simulation time: 0 hr 2 min 31 sec) 

Warmup complete CPU 0 instructions: 50000002 cycles: 20878200 (Simulation time: 0 hr 2 min 31 sec) 

OFFSET CHANGED FROM -3 TO -6
OFFSET CHANGED FROM -6 TO -6
OFFSET CHANGED FROM -6 TO -9
OFFSET CHANGED FROM -9 TO -6
OFFSET CHANGED FROM -6 TO -6
OFFSET CHANGED FROM -6 TO -6
OFFSET CHANGED FROM -6 TO -6
OFFSET CHANGED FROM -6 TO -3
OFFSET CHANGED FROM -3 TO -9
OFFSET CHANGED FROM -9 TO -6
OFFSET CHANGED FROM -6 TO -6
OFFSET CHANGED FROM -6 TO -6
OFFSET CHANGED FROM -6 TO -6
OFFSET CHANGED FROM -6 TO -6
OFFSET CHANGED FROM -6 TO -6
OFFSET CHANGED FROM -6 TO -9
OFFSET CHANGED FROM -9 TO -6
OFFSET CHANGED FROM -6 TO -6
OFFSET CHANGED FROM -6 TO -6
OFFSET CHANGED FROM -6 TO -6
OFFSET CHANGED FROM -6 TO -6
OFFSET CHANGED FROM -6 TO -6
OFFSET CHANGED FROM -6 TO -6
OFFSET CHANGED FROM -6 TO -6
OFFSET CHANGED FROM -6 TO -6
OFFSET CHANGED FROM -6 TO -6
OFFSET CHANGED FROM -6 TO -6
OFFSET CHANGED FROM -6 TO -6
OFFSET CHANGED FROM -6 TO -9
OFFSET CHANGED FROM -9 TO -9
OFFSET CHANGED FROM -9 TO -6
OFFSET CHANGED FROM -6 TO -6
OFFSET CHANGED FROM -6 TO -6
OFFSET CHANGED FROM -6 TO -6
OFFSET CHANGED FROM -6 TO -6
OFFSET CHANGED FROM -6 TO -6
OFFSET CHANGED FROM -6 TO -6
OFFSET CHANGED FROM -6 TO -6
OFFSET CHANGED FROM -6 TO -6
OFFSET CHANGED FROM -6 TO -12
OFFSET CHANGED FROM -12 TO -12
PREFETCHING INTO L2 w/ PREFETCH SCORE 31 (MSHR OCC = 28)
PREFETCHING INTO L2 w/ PREFETCH SCORE 31 (MSHR OCC = 29)
PREFETCHING INTO L2 w/ PREFETCH SCORE 31 (MSHR OCC = 30)
PREFETCHING INTO L2 w/ PREFETCH SCORE 31 (MSHR OCC = 31)
PREFETCHING INTO L2 w/ PREFETCH SCORE 31 (MSHR OCC = 32)
PREFETCHING INTO L2 w/ PREFETCH SCORE 31 (MSHR OCC = 28)
OFFSET CHANGED FROM -12 TO -6
OFFSET CHANGED FROM -6 TO -6
OFFSET CHANGED FROM -6 TO -6
OFFSET CHANGED FROM -6 TO -6
OFFSET CHANGED FROM -6 TO -6
OFFSET CHANGED FROM -6 TO -6
OFFSET CHANGED FROM -6 TO -6
OFFSET CHANGED FROM -6 TO -9
OFFSET CHANGED FROM -9 TO -9
OFFSET CHANGED FROM -9 TO -6
OFFSET CHANGED FROM -6 TO -6
OFFSET CHANGED FROM -6 TO -9
OFFSET CHANGED FROM -9 TO -9
OFFSET CHANGED FROM -9 TO -6
OFFSET CHANGED FROM -6 TO -9
OFFSET CHANGED FROM -9 TO -9
OFFSET CHANGED FROM -9 TO -9
OFFSET CHANGED FROM -9 TO -12
OFFSET CHANGED FROM -12 TO -12
OFFSET CHANGED FROM -12 TO -6
OFFSET CHANGED FROM -6 TO -6
OFFSET CHANGED FROM -6 TO -6
OFFSET CHANGED FROM -6 TO -9
OFFSET CHANGED FROM -9 TO -9
OFFSET CHANGED FROM -9 TO -6
OFFSET CHANGED FROM -6 TO -6
OFFSET CHANGED FROM -6 TO -6
OFFSET CHANGED FROM -6 TO -6
OFFSET CHANGED FROM -6 TO -6
OFFSET CHANGED FROM -6 TO -6
OFFSET CHANGED FROM -6 TO -15
OFFSET CHANGED FROM -15 TO -9
OFFSET CHANGED FROM -9 TO -6
OFFSET CHANGED FROM -6 TO -6
OFFSET CHANGED FROM -6 TO -6
OFFSET CHANGED FROM -6 TO -6
OFFSET CHANGED FROM -6 TO -6
OFFSET CHANGED FROM -6 TO -6
OFFSET CHANGED FROM -6 TO -6
OFFSET CHANGED FROM -6 TO -6
OFFSET CHANGED FROM -6 TO -6
OFFSET CHANGED FROM -6 TO -9
OFFSET CHANGED FROM -9 TO -9
OFFSET CHANGED FROM -9 TO -9
OFFSET CHANGED FROM -9 TO -9
OFFSET CHANGED FROM -9 TO -9
OFFSET CHANGED FROM -9 TO -6
OFFSET CHANGED FROM -6 TO -6
PREFETCHING INTO L2 w/ PREFETCH SCORE 31 (MSHR OCC = 30)
PREFETCHING INTO L2 w/ PREFETCH SCORE 31 (MSHR OCC = 29)
PREFETCHING INTO L2 w/ PREFETCH SCORE 31 (MSHR OCC = 28)
PREFETCHING INTO L2 w/ PREFETCH SCORE 31 (MSHR OCC = 28)
PREFETCHING INTO L2 w/ PREFETCH SCORE 31 (MSHR OCC = 28)
PREFETCHING INTO L2 w/ PREFETCH SCORE 31 (MSHR OCC = 29)
OFFSET CHANGED FROM -6 TO -6
OFFSET CHANGED FROM -6 TO -6
OFFSET CHANGED FROM -6 TO -6
OFFSET CHANGED FROM -6 TO -9
OFFSET CHANGED FROM -9 TO -6
OFFSET CHANGED FROM -6 TO -6
OFFSET CHANGED FROM -6 TO -6
OFFSET CHANGED FROM -6 TO -6
OFFSET CHANGED FROM -6 TO -6
OFFSET CHANGED FROM -6 TO -6
OFFSET CHANGED FROM -6 TO -6
OFFSET CHANGED FROM -6 TO -12
OFFSET CHANGED FROM -12 TO -12
OFFSET CHANGED FROM -12 TO -6
OFFSET CHANGED FROM -6 TO -12
OFFSET CHANGED FROM -12 TO -9
OFFSET CHANGED FROM -9 TO -6
OFFSET CHANGED FROM -6 TO -9
OFFSET CHANGED FROM -9 TO -9
OFFSET CHANGED FROM -9 TO -6
OFFSET CHANGED FROM -6 TO -9
OFFSET CHANGED FROM -9 TO -9
OFFSET CHANGED FROM -9 TO -6
OFFSET CHANGED FROM -6 TO -12
OFFSET CHANGED FROM -12 TO -9
OFFSET CHANGED FROM -9 TO -6
OFFSET CHANGED FROM -6 TO -9
OFFSET CHANGED FROM -9 TO -12
OFFSET CHANGED FROM -12 TO -9
OFFSET CHANGED FROM -9 TO -6
OFFSET CHANGED FROM -6 TO -6
OFFSET CHANGED FROM -6 TO -9
OFFSET CHANGED FROM -9 TO -9
OFFSET CHANGED FROM -9 TO -6
OFFSET CHANGED FROM -6 TO -6
OFFSET CHANGED FROM -6 TO -6
OFFSET CHANGED FROM -6 TO -6
OFFSET CHANGED FROM -6 TO -6
OFFSET CHANGED FROM -6 TO -12
OFFSET CHANGED FROM -12 TO -6
OFFSET CHANGED FROM -6 TO -12
OFFSET CHANGED FROM -12 TO -12
OFFSET CHANGED FROM -12 TO -6
OFFSET CHANGED FROM -6 TO -6
OFFSET CHANGED FROM -6 TO -6
OFFSET CHANGED FROM -6 TO -6
OFFSET CHANGED FROM -6 TO -6
OFFSET CHANGED FROM -6 TO -6
OFFSET CHANGED FROM -6 TO -6
OFFSET CHANGED FROM -6 TO -6
OFFSET CHANGED FROM -6 TO -6
OFFSET CHANGED FROM -6 TO -6
OFFSET CHANGED FROM -6 TO -6
OFFSET CHANGED FROM -6 TO -6
OFFSET CHANGED FROM -6 TO -9
OFFSET CHANGED FROM -9 TO -9
OFFSET CHANGED FROM -9 TO -9
OFFSET CHANGED FROM -9 TO -12
OFFSET CHANGED FROM -12 TO -6
OFFSET CHANGED FROM -6 TO -9
OFFSET CHANGED FROM -9 TO -9
OFFSET CHANGED FROM -9 TO -6
OFFSET CHANGED FROM -6 TO -6
OFFSET CHANGED FROM -6 TO -6
OFFSET CHANGED FROM -6 TO -6
OFFSET CHANGED FROM -6 TO -6
OFFSET CHANGED FROM -6 TO -9
OFFSET CHANGED FROM -9 TO -6
OFFSET CHANGED FROM -6 TO -9
OFFSET CHANGED FROM -9 TO -6
OFFSET CHANGED FROM -6 TO -6
OFFSET CHANGED FROM -6 TO -9
OFFSET CHANGED FROM -9 TO -6
OFFSET CHANGED FROM -6 TO -6
OFFSET CHANGED FROM -6 TO -6
OFFSET CHANGED FROM -6 TO -6
OFFSET CHANGED FROM -6 TO -6
OFFSET CHANGED FROM -6 TO -6
OFFSET CHANGED FROM -6 TO -9
OFFSET CHANGED FROM -9 TO -12
OFFSET CHANGED FROM -12 TO -6
OFFSET CHANGED FROM -6 TO -6
OFFSET CHANGED FROM -6 TO -9
OFFSET CHANGED FROM -9 TO -6
OFFSET CHANGED FROM -6 TO -6
OFFSET CHANGED FROM -6 TO -6
OFFSET CHANGED FROM -6 TO -9
OFFSET CHANGED FROM -9 TO -6
OFFSET CHANGED FROM -6 TO -6
OFFSET CHANGED FROM -6 TO -6
OFFSET CHANGED FROM -6 TO -6
OFFSET CHANGED FROM -6 TO -6
OFFSET CHANGED FROM -6 TO -6
OFFSET CHANGED FROM -6 TO -6
OFFSET CHANGED FROM -6 TO -6
OFFSET CHANGED FROM -6 TO -9
OFFSET CHANGED FROM -9 TO -9
OFFSET CHANGED FROM -9 TO -9
OFFSET CHANGED FROM -9 TO -6
OFFSET CHANGED FROM -6 TO -6
OFFSET CHANGED FROM -6 TO -12
OFFSET CHANGED FROM -12 TO -12
OFFSET CHANGED FROM -12 TO -9
OFFSET CHANGED FROM -9 TO -6
OFFSET CHANGED FROM -6 TO -9
PREFETCHING INTO L2 w/ PREFETCH SCORE 31 (MSHR OCC = 28)
PREFETCHING INTO L2 w/ PREFETCH SCORE 31 (MSHR OCC = 31)
PREFETCHING INTO L2 w/ PREFETCH SCORE 31 (MSHR OCC = 31)
PREFETCHING INTO L2 w/ PREFETCH SCORE 31 (MSHR OCC = 31)
OFFSET CHANGED FROM -9 TO -9
OFFSET CHANGED FROM -9 TO -6
OFFSET CHANGED FROM -6 TO -6
OFFSET CHANGED FROM -6 TO -6
OFFSET CHANGED FROM -6 TO -6
OFFSET CHANGED FROM -6 TO -6
OFFSET CHANGED FROM -6 TO -6
OFFSET CHANGED FROM -6 TO -6
OFFSET CHANGED FROM -6 TO -6
OFFSET CHANGED FROM -6 TO -9
OFFSET CHANGED FROM -9 TO -9
OFFSET CHANGED FROM -9 TO -6
OFFSET CHANGED FROM -6 TO -6
OFFSET CHANGED FROM -6 TO -6
OFFSET CHANGED FROM -6 TO -6
OFFSET CHANGED FROM -6 TO -12
OFFSET CHANGED FROM -12 TO -9
OFFSET CHANGED FROM -9 TO -6
OFFSET CHANGED FROM -6 TO -12
OFFSET CHANGED FROM -12 TO -9
OFFSET CHANGED FROM -9 TO -6
OFFSET CHANGED FROM -6 TO -6
OFFSET CHANGED FROM -6 TO -12
OFFSET CHANGED FROM -12 TO -6
OFFSET CHANGED FROM -6 TO -6
OFFSET CHANGED FROM -6 TO -9
OFFSET CHANGED FROM -9 TO -6
OFFSET CHANGED FROM -6 TO -6
OFFSET CHANGED FROM -6 TO -9
OFFSET CHANGED FROM -9 TO -6
OFFSET CHANGED FROM -6 TO -6
OFFSET CHANGED FROM -6 TO -6
OFFSET CHANGED FROM -6 TO -6
OFFSET CHANGED FROM -6 TO -6
OFFSET CHANGED FROM -6 TO -6
OFFSET CHANGED FROM -6 TO -6
OFFSET CHANGED FROM -6 TO -9
OFFSET CHANGED FROM -9 TO -3
OFFSET CHANGED FROM -3 TO -9
OFFSET CHANGED FROM -9 TO -9
OFFSET CHANGED FROM -9 TO -3
OFFSET CHANGED FROM -3 TO -6
OFFSET CHANGED FROM -6 TO -3
OFFSET CHANGED FROM -3 TO -9
OFFSET CHANGED FROM -9 TO -6
OFFSET CHANGED FROM -6 TO -3
OFFSET CHANGED FROM -3 TO -3
OFFSET CHANGED FROM -3 TO -6
OFFSET CHANGED FROM -6 TO -3
OFFSET CHANGED FROM -3 TO -3
OFFSET CHANGED FROM -3 TO -6
OFFSET CHANGED FROM -6 TO -9
OFFSET CHANGED FROM -9 TO -6
OFFSET CHANGED FROM -6 TO -6
OFFSET CHANGED FROM -6 TO -6
OFFSET CHANGED FROM -6 TO -6
OFFSET CHANGED FROM -6 TO -6
OFFSET CHANGED FROM -6 TO -6
OFFSET CHANGED FROM -6 TO -6
OFFSET CHANGED FROM -6 TO -6
OFFSET CHANGED FROM -6 TO -6
OFFSET CHANGED FROM -6 TO -6
OFFSET CHANGED FROM -6 TO -9
OFFSET CHANGED FROM -9 TO -6
OFFSET CHANGED FROM -6 TO -6
OFFSET CHANGED FROM -6 TO -12
OFFSET CHANGED FROM -12 TO -12
OFFSET CHANGED FROM -12 TO -6
OFFSET CHANGED FROM -6 TO -6
OFFSET CHANGED FROM -6 TO -6
OFFSET CHANGED FROM -6 TO -9
OFFSET CHANGED FROM -9 TO -6
OFFSET CHANGED FROM -6 TO -6
OFFSET CHANGED FROM -6 TO -6
OFFSET CHANGED FROM -6 TO -6
OFFSET CHANGED FROM -6 TO -9
OFFSET CHANGED FROM -9 TO -6
OFFSET CHANGED FROM -6 TO -6
OFFSET CHANGED FROM -6 TO -6
OFFSET CHANGED FROM -6 TO -6
OFFSET CHANGED FROM -6 TO -6
OFFSET CHANGED FROM -6 TO -6
OFFSET CHANGED FROM -6 TO -6
OFFSET CHANGED FROM -6 TO -6
OFFSET CHANGED FROM -6 TO -12
OFFSET CHANGED FROM -12 TO -12
OFFSET CHANGED FROM -12 TO -6
OFFSET CHANGED FROM -6 TO -9
OFFSET CHANGED FROM -9 TO -6
OFFSET CHANGED FROM -6 TO -6
OFFSET CHANGED FROM -6 TO -9
OFFSET CHANGED FROM -9 TO -6
OFFSET CHANGED FROM -6 TO -6
OFFSET CHANGED FROM -6 TO -9
OFFSET CHANGED FROM -9 TO -12
OFFSET CHANGED FROM -12 TO -9
OFFSET CHANGED FROM -9 TO -9
OFFSET CHANGED FROM -9 TO -6
OFFSET CHANGED FROM -6 TO -6
OFFSET CHANGED FROM -6 TO -6
OFFSET CHANGED FROM -6 TO -6
OFFSET CHANGED FROM -6 TO -9
OFFSET CHANGED FROM -9 TO -9
OFFSET CHANGED FROM -9 TO -6
OFFSET CHANGED FROM -6 TO -9
OFFSET CHANGED FROM -9 TO -6
OFFSET CHANGED FROM -6 TO -6
OFFSET CHANGED FROM -6 TO -12
OFFSET CHANGED FROM -12 TO -12
OFFSET CHANGED FROM -12 TO -6
OFFSET CHANGED FROM -6 TO -6
OFFSET CHANGED FROM -6 TO -9
OFFSET CHANGED FROM -9 TO -6
OFFSET CHANGED FROM -6 TO -6
OFFSET CHANGED FROM -6 TO -9
OFFSET CHANGED FROM -9 TO -9
OFFSET CHANGED FROM -9 TO -9
OFFSET CHANGED FROM -9 TO -15
OFFSET CHANGED FROM -15 TO -6
OFFSET CHANGED FROM -6 TO -6
OFFSET CHANGED FROM -6 TO -9
OFFSET CHANGED FROM -9 TO -6
OFFSET CHANGED FROM -6 TO -6
OFFSET CHANGED FROM -6 TO -9
OFFSET CHANGED FROM -9 TO -6
OFFSET CHANGED FROM -6 TO -6
OFFSET CHANGED FROM -6 TO -9
OFFSET CHANGED FROM -9 TO -6
OFFSET CHANGED FROM -6 TO -6
OFFSET CHANGED FROM -6 TO -9
OFFSET CHANGED FROM -9 TO -9
OFFSET CHANGED FROM -9 TO -6
OFFSET CHANGED FROM -6 TO -6
OFFSET CHANGED FROM -6 TO -6
OFFSET CHANGED FROM -6 TO -6
OFFSET CHANGED FROM -6 TO -9
OFFSET CHANGED FROM -9 TO -9
OFFSET CHANGED FROM -9 TO -12
OFFSET CHANGED FROM -12 TO -6
OFFSET CHANGED FROM -6 TO -6
OFFSET CHANGED FROM -6 TO -6
OFFSET CHANGED FROM -6 TO -6
OFFSET CHANGED FROM -6 TO -6
OFFSET CHANGED FROM -6 TO -6
OFFSET CHANGED FROM -6 TO -6
OFFSET CHANGED FROM -6 TO -9
OFFSET CHANGED FROM -9 TO -6
OFFSET CHANGED FROM -6 TO -9
OFFSET CHANGED FROM -9 TO -9
OFFSET CHANGED FROM -9 TO -6
OFFSET CHANGED FROM -6 TO -6
OFFSET CHANGED FROM -6 TO -6
OFFSET CHANGED FROM -6 TO -6
OFFSET CHANGED FROM -6 TO -6
OFFSET CHANGED FROM -6 TO -6
OFFSET CHANGED FROM -6 TO -6
OFFSET CHANGED FROM -6 TO -6
OFFSET CHANGED FROM -6 TO -6
OFFSET CHANGED FROM -6 TO -6
OFFSET CHANGED FROM -6 TO -6
OFFSET CHANGED FROM -6 TO -6
OFFSET CHANGED FROM -6 TO -9
OFFSET CHANGED FROM -9 TO -6
OFFSET CHANGED FROM -6 TO -9
OFFSET CHANGED FROM -9 TO -9
OFFSET CHANGED FROM -9 TO -6
OFFSET CHANGED FROM -6 TO -12
OFFSET CHANGED FROM -12 TO -9
OFFSET CHANGED FROM -9 TO -6
OFFSET CHANGED FROM -6 TO -9
OFFSET CHANGED FROM -9 TO -6
OFFSET CHANGED FROM -6 TO -6
OFFSET CHANGED FROM -6 TO -12
OFFSET CHANGED FROM -12 TO -9
OFFSET CHANGED FROM -9 TO -6
OFFSET CHANGED FROM -6 TO -6
OFFSET CHANGED FROM -6 TO -12
OFFSET CHANGED FROM -12 TO -6
OFFSET CHANGED FROM -6 TO -6
OFFSET CHANGED FROM -6 TO -6
OFFSET CHANGED FROM -6 TO -6
OFFSET CHANGED FROM -6 TO -6
OFFSET CHANGED FROM -6 TO -6
OFFSET CHANGED FROM -6 TO -6
OFFSET CHANGED FROM -6 TO -6
OFFSET CHANGED FROM -6 TO -9
OFFSET CHANGED FROM -9 TO -6
OFFSET CHANGED FROM -6 TO -6
OFFSET CHANGED FROM -6 TO -9
OFFSET CHANGED FROM -9 TO -6
OFFSET CHANGED FROM -6 TO -9
OFFSET CHANGED FROM -9 TO -12
OFFSET CHANGED FROM -12 TO -9
OFFSET CHANGED FROM -9 TO -6
OFFSET CHANGED FROM -6 TO -6
OFFSET CHANGED FROM -6 TO -6
OFFSET CHANGED FROM -6 TO -6
OFFSET CHANGED FROM -6 TO -6
OFFSET CHANGED FROM -6 TO -6
OFFSET CHANGED FROM -6 TO -9
OFFSET CHANGED FROM -9 TO -6
OFFSET CHANGED FROM -6 TO -6
OFFSET CHANGED FROM -6 TO -6
OFFSET CHANGED FROM -6 TO -6
OFFSET CHANGED FROM -6 TO -12
OFFSET CHANGED FROM -12 TO -6
OFFSET CHANGED FROM -6 TO -6
OFFSET CHANGED FROM -6 TO -6
OFFSET CHANGED FROM -6 TO -9
OFFSET CHANGED FROM -9 TO -6
OFFSET CHANGED FROM -6 TO -15
OFFSET CHANGED FROM -15 TO -12
OFFSET CHANGED FROM -12 TO -6
OFFSET CHANGED FROM -6 TO -6
OFFSET CHANGED FROM -6 TO -6
OFFSET CHANGED FROM -6 TO -6
OFFSET CHANGED FROM -6 TO -6
OFFSET CHANGED FROM -6 TO -6
OFFSET CHANGED FROM -6 TO -9
OFFSET CHANGED FROM -9 TO -6
OFFSET CHANGED FROM -6 TO -9
OFFSET CHANGED FROM -9 TO -9
OFFSET CHANGED FROM -9 TO -9
OFFSET CHANGED FROM -9 TO -6
OFFSET CHANGED FROM -6 TO -6
OFFSET CHANGED FROM -6 TO -6
OFFSET CHANGED FROM -6 TO -9
OFFSET CHANGED FROM -9 TO -9
OFFSET CHANGED FROM -9 TO -6
OFFSET CHANGED FROM -6 TO -15
OFFSET CHANGED FROM -15 TO -12
OFFSET CHANGED FROM -12 TO -12
OFFSET CHANGED FROM -12 TO -12
OFFSET CHANGED FROM -12 TO -6
PREFETCHING INTO L2 w/ PREFETCH SCORE 31 (MSHR OCC = 28)
PREFETCHING INTO L2 w/ PREFETCH SCORE 31 (MSHR OCC = 29)
OFFSET CHANGED FROM -6 TO -9
OFFSET CHANGED FROM -9 TO -6
OFFSET CHANGED FROM -6 TO -6
OFFSET CHANGED FROM -6 TO -6
OFFSET CHANGED FROM -6 TO -9
OFFSET CHANGED FROM -9 TO -6
OFFSET CHANGED FROM -6 TO -9
OFFSET CHANGED FROM -9 TO -6
OFFSET CHANGED FROM -6 TO -6
OFFSET CHANGED FROM -6 TO -9
OFFSET CHANGED FROM -9 TO -6
OFFSET CHANGED FROM -6 TO -9
OFFSET CHANGED FROM -9 TO -9
OFFSET CHANGED FROM -9 TO -6
OFFSET CHANGED FROM -6 TO -6
OFFSET CHANGED FROM -6 TO -6
OFFSET CHANGED FROM -6 TO -6
OFFSET CHANGED FROM -6 TO -6
OFFSET CHANGED FROM -6 TO -12
OFFSET CHANGED FROM -12 TO -9
OFFSET CHANGED FROM -9 TO -9
OFFSET CHANGED FROM -9 TO -9
OFFSET CHANGED FROM -9 TO -6
OFFSET CHANGED FROM -6 TO -6
OFFSET CHANGED FROM -6 TO -6
OFFSET CHANGED FROM -6 TO -6
OFFSET CHANGED FROM -6 TO -6
OFFSET CHANGED FROM -6 TO -9
OFFSET CHANGED FROM -9 TO -9
OFFSET CHANGED FROM -9 TO -9
OFFSET CHANGED FROM -9 TO -6
OFFSET CHANGED FROM -6 TO -6
OFFSET CHANGED FROM -6 TO -12
OFFSET CHANGED FROM -12 TO -6
OFFSET CHANGED FROM -6 TO -12
OFFSET CHANGED FROM -12 TO -9
OFFSET CHANGED FROM -9 TO -6
OFFSET CHANGED FROM -6 TO -6
OFFSET CHANGED FROM -6 TO -6
OFFSET CHANGED FROM -6 TO -6
OFFSET CHANGED FROM -6 TO -6
OFFSET CHANGED FROM -6 TO -6
OFFSET CHANGED FROM -6 TO -12
OFFSET CHANGED FROM -12 TO -9
OFFSET CHANGED FROM -9 TO -6
OFFSET CHANGED FROM -6 TO -6
OFFSET CHANGED FROM -6 TO -9
OFFSET CHANGED FROM -9 TO -6
OFFSET CHANGED FROM -6 TO -6
OFFSET CHANGED FROM -6 TO -6
OFFSET CHANGED FROM -6 TO -6
OFFSET CHANGED FROM -6 TO -6
OFFSET CHANGED FROM -6 TO -6
OFFSET CHANGED FROM -6 TO -6
OFFSET CHANGED FROM -6 TO -6
OFFSET CHANGED FROM -6 TO -6
OFFSET CHANGED FROM -6 TO -6
OFFSET CHANGED FROM -6 TO -9
OFFSET CHANGED FROM -9 TO -6
OFFSET CHANGED FROM -6 TO -6
OFFSET CHANGED FROM -6 TO -6
OFFSET CHANGED FROM -6 TO -6
OFFSET CHANGED FROM -6 TO -9
OFFSET CHANGED FROM -9 TO -9
OFFSET CHANGED FROM -9 TO -6
OFFSET CHANGED FROM -6 TO -6
OFFSET CHANGED FROM -6 TO -6
OFFSET CHANGED FROM -6 TO -6
OFFSET CHANGED FROM -6 TO -9
OFFSET CHANGED FROM -9 TO -9
OFFSET CHANGED FROM -9 TO -9
OFFSET CHANGED FROM -9 TO -9
OFFSET CHANGED FROM -9 TO -6
OFFSET CHANGED FROM -6 TO -6
OFFSET CHANGED FROM -6 TO -6
OFFSET CHANGED FROM -6 TO -6
OFFSET CHANGED FROM -6 TO -6
OFFSET CHANGED FROM -6 TO -12
OFFSET CHANGED FROM -12 TO -9
OFFSET CHANGED FROM -9 TO -6
OFFSET CHANGED FROM -6 TO -12
OFFSET CHANGED FROM -12 TO -9
OFFSET CHANGED FROM -9 TO -6
OFFSET CHANGED FROM -6 TO -12
OFFSET CHANGED FROM -12 TO -12
OFFSET CHANGED FROM -12 TO -6
OFFSET CHANGED FROM -6 TO -9
OFFSET CHANGED FROM -9 TO -9
OFFSET CHANGED FROM -9 TO -6
OFFSET CHANGED FROM -6 TO -6
OFFSET CHANGED FROM -6 TO -9
OFFSET CHANGED FROM -9 TO -9
OFFSET CHANGED FROM -9 TO -6
OFFSET CHANGED FROM -6 TO -6
Heartbeat CPU 0 instructions: 60000001 cycles: 50522981 heartbeat IPC: 0.337327 cumulative IPC: 0.337327 (Simulation time: 0 hr 3 min 15 sec) 
OFFSET CHANGED FROM -6 TO -6
OFFSET CHANGED FROM -6 TO -3
OFFSET CHANGED FROM -3 TO -3
OFFSET CHANGED FROM -3 TO -6
OFFSET CHANGED FROM -6 TO -3
OFFSET CHANGED FROM -3 TO -3
OFFSET CHANGED FROM -3 TO -3
OFFSET CHANGED FROM -3 TO -3
OFFSET CHANGED FROM -3 TO -6
OFFSET CHANGED FROM -6 TO -6
OFFSET CHANGED FROM -6 TO -3
OFFSET CHANGED FROM -3 TO -3
OFFSET CHANGED FROM -3 TO -12
OFFSET CHANGED FROM -12 TO -9
OFFSET CHANGED FROM -9 TO -6
OFFSET CHANGED FROM -6 TO -15
OFFSET CHANGED FROM -15 TO -9
OFFSET CHANGED FROM -9 TO -9
OFFSET CHANGED FROM -9 TO -6
OFFSET CHANGED FROM -6 TO -9
OFFSET CHANGED FROM -9 TO -9
OFFSET CHANGED FROM -9 TO -9
OFFSET CHANGED FROM -9 TO -6
OFFSET CHANGED FROM -6 TO -6
OFFSET CHANGED FROM -6 TO -9
OFFSET CHANGED FROM -9 TO -6
OFFSET CHANGED FROM -6 TO -6
OFFSET CHANGED FROM -6 TO -6
OFFSET CHANGED FROM -6 TO -6
OFFSET CHANGED FROM -6 TO -9
OFFSET CHANGED FROM -9 TO -9
OFFSET CHANGED FROM -9 TO -6
OFFSET CHANGED FROM -6 TO -6
OFFSET CHANGED FROM -6 TO -6
OFFSET CHANGED FROM -6 TO -6
OFFSET CHANGED FROM -6 TO -6
OFFSET CHANGED FROM -6 TO -9
OFFSET CHANGED FROM -9 TO -9
OFFSET CHANGED FROM -9 TO -6
OFFSET CHANGED FROM -6 TO -6
OFFSET CHANGED FROM -6 TO -9
OFFSET CHANGED FROM -9 TO -9
OFFSET CHANGED FROM -9 TO -6
OFFSET CHANGED FROM -6 TO -9
OFFSET CHANGED FROM -9 TO -12
OFFSET CHANGED FROM -12 TO -6
OFFSET CHANGED FROM -6 TO -3
OFFSET CHANGED FROM -3 TO -6
OFFSET CHANGED FROM -6 TO -6
OFFSET CHANGED FROM -6 TO -3
OFFSET CHANGED FROM -3 TO -6
OFFSET CHANGED FROM -6 TO -9
OFFSET CHANGED FROM -9 TO -9
OFFSET CHANGED FROM -9 TO -6
OFFSET CHANGED FROM -6 TO -3
OFFSET CHANGED FROM -3 TO -3
OFFSET CHANGED FROM -3 TO -3
OFFSET CHANGED FROM -3 TO -6
OFFSET CHANGED FROM -6 TO -6
OFFSET CHANGED FROM -6 TO -6
OFFSET CHANGED FROM -6 TO -6
OFFSET CHANGED FROM -6 TO -6
OFFSET CHANGED FROM -6 TO -6
OFFSET CHANGED FROM -6 TO -12
OFFSET CHANGED FROM -12 TO -3
OFFSET CHANGED FROM -3 TO -6
OFFSET CHANGED FROM -6 TO -6
OFFSET CHANGED FROM -6 TO -6
OFFSET CHANGED FROM -6 TO -9
OFFSET CHANGED FROM -9 TO -6
OFFSET CHANGED FROM -6 TO -6
OFFSET CHANGED FROM -6 TO -6
OFFSET CHANGED FROM -6 TO -6
OFFSET CHANGED FROM -6 TO -6
OFFSET CHANGED FROM -6 TO -6
OFFSET CHANGED FROM -6 TO -12
OFFSET CHANGED FROM -12 TO -12
OFFSET CHANGED FROM -12 TO -6
OFFSET CHANGED FROM -6 TO -6
OFFSET CHANGED FROM -6 TO -9
OFFSET CHANGED FROM -9 TO -9
OFFSET CHANGED FROM -9 TO -6
OFFSET CHANGED FROM -6 TO -6
OFFSET CHANGED FROM -6 TO -6
OFFSET CHANGED FROM -6 TO -6
OFFSET CHANGED FROM -6 TO -6
OFFSET CHANGED FROM -6 TO -9
OFFSET CHANGED FROM -9 TO -9
OFFSET CHANGED FROM -9 TO -6
OFFSET CHANGED FROM -6 TO -6
OFFSET CHANGED FROM -6 TO -6
OFFSET CHANGED FROM -6 TO -6
OFFSET CHANGED FROM -6 TO -6
OFFSET CHANGED FROM -6 TO -6
OFFSET CHANGED FROM -6 TO -6
OFFSET CHANGED FROM -6 TO -6
OFFSET CHANGED FROM -6 TO -6
OFFSET CHANGED FROM -6 TO -6
OFFSET CHANGED FROM -6 TO -6
OFFSET CHANGED FROM -6 TO -12
OFFSET CHANGED FROM -12 TO -6
OFFSET CHANGED FROM -6 TO -6
OFFSET CHANGED FROM -6 TO -6
OFFSET CHANGED FROM -6 TO -6
OFFSET CHANGED FROM -6 TO -6
OFFSET CHANGED FROM -6 TO -6
OFFSET CHANGED FROM -6 TO -9
OFFSET CHANGED FROM -9 TO -6
OFFSET CHANGED FROM -6 TO -6
OFFSET CHANGED FROM -6 TO -6
OFFSET CHANGED FROM -6 TO -6
OFFSET CHANGED FROM -6 TO -6
OFFSET CHANGED FROM -6 TO -9
OFFSET CHANGED FROM -9 TO -6
OFFSET CHANGED FROM -6 TO -9
OFFSET CHANGED FROM -9 TO -9
OFFSET CHANGED FROM -9 TO -6
OFFSET CHANGED FROM -6 TO -6
OFFSET CHANGED FROM -6 TO -6
OFFSET CHANGED FROM -6 TO -6
OFFSET CHANGED FROM -6 TO -6
OFFSET CHANGED FROM -6 TO -6
OFFSET CHANGED FROM -6 TO -6
OFFSET CHANGED FROM -6 TO -6
OFFSET CHANGED FROM -6 TO -9
OFFSET CHANGED FROM -9 TO -6
OFFSET CHANGED FROM -6 TO -6
OFFSET CHANGED FROM -6 TO -6
OFFSET CHANGED FROM -6 TO -6
OFFSET CHANGED FROM -6 TO -6
OFFSET CHANGED FROM -6 TO -6
OFFSET CHANGED FROM -6 TO -6
OFFSET CHANGED FROM -6 TO -6
OFFSET CHANGED FROM -6 TO -6
OFFSET CHANGED FROM -6 TO -9
OFFSET CHANGED FROM -9 TO -6
OFFSET CHANGED FROM -6 TO -6
OFFSET CHANGED FROM -6 TO -6
OFFSET CHANGED FROM -6 TO -6
OFFSET CHANGED FROM -6 TO -6
OFFSET CHANGED FROM -6 TO -9
OFFSET CHANGED FROM -9 TO -6
OFFSET CHANGED FROM -6 TO -6
OFFSET CHANGED FROM -6 TO -9
OFFSET CHANGED FROM -9 TO -6
OFFSET CHANGED FROM -6 TO -12
PREFETCHING INTO L2 w/ PREFETCH SCORE 31 (MSHR OCC = 30)
PREFETCHING INTO L2 w/ PREFETCH SCORE 31 (MSHR OCC = 28)
OFFSET CHANGED FROM -12 TO -6
OFFSET CHANGED FROM -6 TO -6
OFFSET CHANGED FROM -6 TO -6
PREFETCHING INTO L2 w/ PREFETCH SCORE 31 (MSHR OCC = 29)
PREFETCHING INTO L2 w/ PREFETCH SCORE 31 (MSHR OCC = 28)
OFFSET CHANGED FROM -6 TO -9
OFFSET CHANGED FROM -9 TO -9
OFFSET CHANGED FROM -9 TO -6
OFFSET CHANGED FROM -6 TO -9
OFFSET CHANGED FROM -9 TO -9
OFFSET CHANGED FROM -9 TO -6
OFFSET CHANGED FROM -6 TO -6
OFFSET CHANGED FROM -6 TO -6
OFFSET CHANGED FROM -6 TO -6
OFFSET CHANGED FROM -6 TO -6
OFFSET CHANGED FROM -6 TO -12
OFFSET CHANGED FROM -12 TO -9
OFFSET CHANGED FROM -9 TO -6
OFFSET CHANGED FROM -6 TO -9
OFFSET CHANGED FROM -9 TO -6
OFFSET CHANGED FROM -6 TO -3
OFFSET CHANGED FROM -3 TO -9
OFFSET CHANGED FROM -9 TO -6
OFFSET CHANGED FROM -6 TO -6
OFFSET CHANGED FROM -6 TO -6
OFFSET CHANGED FROM -6 TO -6
OFFSET CHANGED FROM -6 TO -15
OFFSET CHANGED FROM -15 TO -9
OFFSET CHANGED FROM -9 TO -6
OFFSET CHANGED FROM -6 TO -6
OFFSET CHANGED FROM -6 TO -6
OFFSET CHANGED FROM -6 TO -6
OFFSET CHANGED FROM -6 TO -6
OFFSET CHANGED FROM -6 TO -6
OFFSET CHANGED FROM -6 TO -6
OFFSET CHANGED FROM -6 TO -6
OFFSET CHANGED FROM -6 TO -6
OFFSET CHANGED FROM -6 TO -6
OFFSET CHANGED FROM -6 TO -6
OFFSET CHANGED FROM -6 TO -6
OFFSET CHANGED FROM -6 TO -12
OFFSET CHANGED FROM -12 TO -6
OFFSET CHANGED FROM -6 TO -6
OFFSET CHANGED FROM -6 TO -9
OFFSET CHANGED FROM -9 TO -6
OFFSET CHANGED FROM -6 TO -6
OFFSET CHANGED FROM -6 TO -6
OFFSET CHANGED FROM -6 TO -9
OFFSET CHANGED FROM -9 TO -6
OFFSET CHANGED FROM -6 TO -6
OFFSET CHANGED FROM -6 TO -9
OFFSET CHANGED FROM -9 TO -6
OFFSET CHANGED FROM -6 TO -6
OFFSET CHANGED FROM -6 TO -6
OFFSET CHANGED FROM -6 TO -9
OFFSET CHANGED FROM -9 TO -6
OFFSET CHANGED FROM -6 TO -12
OFFSET CHANGED FROM -12 TO -12
OFFSET CHANGED FROM -12 TO -9
OFFSET CHANGED FROM -9 TO -6
OFFSET CHANGED FROM -6 TO -9
OFFSET CHANGED FROM -9 TO -9
OFFSET CHANGED FROM -9 TO -6
OFFSET CHANGED FROM -6 TO -6
OFFSET CHANGED FROM -6 TO -6
OFFSET CHANGED FROM -6 TO -9
OFFSET CHANGED FROM -9 TO -6
OFFSET CHANGED FROM -6 TO -9
OFFSET CHANGED FROM -9 TO -9
OFFSET CHANGED FROM -9 TO -6
OFFSET CHANGED FROM -6 TO -6
OFFSET CHANGED FROM -6 TO -6
OFFSET CHANGED FROM -6 TO -6
OFFSET CHANGED FROM -6 TO -6
OFFSET CHANGED FROM -6 TO -6
OFFSET CHANGED FROM -6 TO -6
OFFSET CHANGED FROM -6 TO -6
OFFSET CHANGED FROM -6 TO -9
OFFSET CHANGED FROM -9 TO -6
OFFSET CHANGED FROM -6 TO -9
OFFSET CHANGED FROM -9 TO -9
OFFSET CHANGED FROM -9 TO -12
OFFSET CHANGED FROM -12 TO -9
Heartbeat CPU 0 instructions: 70000000 cycles: 68314610 heartbeat IPC: 0.562062 cumulative IPC: 0.421617 (Simulation time: 0 hr 3 min 49 sec) 
OFFSET CHANGED FROM -9 TO -6
OFFSET CHANGED FROM -6 TO -12
OFFSET CHANGED FROM -12 TO -9
OFFSET CHANGED FROM -9 TO -6
OFFSET CHANGED FROM -6 TO -12
OFFSET CHANGED FROM -12 TO -12
OFFSET CHANGED FROM -12 TO -6
OFFSET CHANGED FROM -6 TO -12
OFFSET CHANGED FROM -12 TO -9
OFFSET CHANGED FROM -9 TO -6
OFFSET CHANGED FROM -6 TO -6
OFFSET CHANGED FROM -6 TO -6
OFFSET CHANGED FROM -6 TO -12
OFFSET CHANGED FROM -12 TO -12
OFFSET CHANGED FROM -12 TO -9
PREFETCHING INTO L2 w/ PREFETCH SCORE 31 (MSHR OCC = 29)
PREFETCHING INTO L2 w/ PREFETCH SCORE 31 (MSHR OCC = 30)
OFFSET CHANGED FROM -9 TO -6
OFFSET CHANGED FROM -6 TO -6
OFFSET CHANGED FROM -6 TO -6
OFFSET CHANGED FROM -6 TO -6
OFFSET CHANGED FROM -6 TO -6
OFFSET CHANGED FROM -6 TO -6
OFFSET CHANGED FROM -6 TO -6
OFFSET CHANGED FROM -6 TO -6
OFFSET CHANGED FROM -6 TO -6
OFFSET CHANGED FROM -6 TO -6
OFFSET CHANGED FROM -6 TO -9
OFFSET CHANGED FROM -9 TO -9
OFFSET CHANGED FROM -9 TO -6
OFFSET CHANGED FROM -6 TO -6
OFFSET CHANGED FROM -6 TO -6
OFFSET CHANGED FROM -6 TO -6
OFFSET CHANGED FROM -6 TO -6
OFFSET CHANGED FROM -6 TO -12
OFFSET CHANGED FROM -12 TO -6
OFFSET CHANGED FROM -6 TO -6
OFFSET CHANGED FROM -6 TO -9
OFFSET CHANGED FROM -9 TO -6
OFFSET CHANGED FROM -6 TO -6
OFFSET CHANGED FROM -6 TO -12
OFFSET CHANGED FROM -12 TO -6
OFFSET CHANGED FROM -6 TO -9
OFFSET CHANGED FROM -9 TO -6
OFFSET CHANGED FROM -6 TO -6
OFFSET CHANGED FROM -6 TO -12
OFFSET CHANGED FROM -12 TO -6
OFFSET CHANGED FROM -6 TO -6
OFFSET CHANGED FROM -6 TO -12
OFFSET CHANGED FROM -12 TO -12
OFFSET CHANGED FROM -12 TO -6
OFFSET CHANGED FROM -6 TO -6
OFFSET CHANGED FROM -6 TO -6
OFFSET CHANGED FROM -6 TO -6
OFFSET CHANGED FROM -6 TO -9
OFFSET CHANGED FROM -9 TO -9
OFFSET CHANGED FROM -9 TO -6
OFFSET CHANGED FROM -6 TO -6
OFFSET CHANGED FROM -6 TO -6
OFFSET CHANGED FROM -6 TO -9
OFFSET CHANGED FROM -9 TO -6
OFFSET CHANGED FROM -6 TO -6
OFFSET CHANGED FROM -6 TO -6
OFFSET CHANGED FROM -6 TO -9
OFFSET CHANGED FROM -9 TO -6
OFFSET CHANGED FROM -6 TO -9
OFFSET CHANGED FROM -9 TO -12
OFFSET CHANGED FROM -12 TO -9
OFFSET CHANGED FROM -9 TO -12
OFFSET CHANGED FROM -12 TO -9
OFFSET CHANGED FROM -9 TO -6
OFFSET CHANGED FROM -6 TO -9
OFFSET CHANGED FROM -9 TO -9
OFFSET CHANGED FROM -9 TO -6
OFFSET CHANGED FROM -6 TO -9
OFFSET CHANGED FROM -9 TO -6
OFFSET CHANGED FROM -6 TO -9
OFFSET CHANGED FROM -9 TO -9
OFFSET CHANGED FROM -9 TO -6
OFFSET CHANGED FROM -6 TO -6
OFFSET CHANGED FROM -6 TO -6
OFFSET CHANGED FROM -6 TO -6
OFFSET CHANGED FROM -6 TO -6
OFFSET CHANGED FROM -6 TO -6
OFFSET CHANGED FROM -6 TO -6
OFFSET CHANGED FROM -6 TO -6
OFFSET CHANGED FROM -6 TO -6
OFFSET CHANGED FROM -6 TO -6
OFFSET CHANGED FROM -6 TO -6
OFFSET CHANGED FROM -6 TO -6
OFFSET CHANGED FROM -6 TO -12
OFFSET CHANGED FROM -12 TO -9
OFFSET CHANGED FROM -9 TO -6
OFFSET CHANGED FROM -6 TO -9
OFFSET CHANGED FROM -9 TO -9
OFFSET CHANGED FROM -9 TO -9
OFFSET CHANGED FROM -9 TO -6
OFFSET CHANGED FROM -6 TO -9
OFFSET CHANGED FROM -9 TO -12
OFFSET CHANGED FROM -12 TO -12
OFFSET CHANGED FROM -12 TO -6
OFFSET CHANGED FROM -6 TO -9
OFFSET CHANGED FROM -9 TO -12
OFFSET CHANGED FROM -12 TO -6
OFFSET CHANGED FROM -6 TO -6
OFFSET CHANGED FROM -6 TO -6
OFFSET CHANGED FROM -6 TO -6
OFFSET CHANGED FROM -6 TO -6
OFFSET CHANGED FROM -6 TO -6
OFFSET CHANGED FROM -6 TO -6
OFFSET CHANGED FROM -6 TO -12
OFFSET CHANGED FROM -12 TO -9
OFFSET CHANGED FROM -9 TO -6
PREFETCHING INTO L2 w/ PREFETCH SCORE 31 (MSHR OCC = 29)
PREFETCHING INTO L2 w/ PREFETCH SCORE 31 (MSHR OCC = 28)
PREFETCHING INTO L2 w/ PREFETCH SCORE 31 (MSHR OCC = 29)
OFFSET CHANGED FROM -6 TO -6
OFFSET CHANGED FROM -6 TO -6
OFFSET CHANGED FROM -6 TO -6
OFFSET CHANGED FROM -6 TO -6
OFFSET CHANGED FROM -6 TO -9
OFFSET CHANGED FROM -9 TO -6
OFFSET CHANGED FROM -6 TO -6
OFFSET CHANGED FROM -6 TO -6
OFFSET CHANGED FROM -6 TO -6
OFFSET CHANGED FROM -6 TO -9
OFFSET CHANGED FROM -9 TO -6
OFFSET CHANGED FROM -6 TO -9
OFFSET CHANGED FROM -9 TO -9
OFFSET CHANGED FROM -9 TO -6
OFFSET CHANGED FROM -6 TO -6
OFFSET CHANGED FROM -6 TO -6
OFFSET CHANGED FROM -6 TO -6
OFFSET CHANGED FROM -6 TO -6
OFFSET CHANGED FROM -6 TO -6
OFFSET CHANGED FROM -6 TO -6
OFFSET CHANGED FROM -6 TO -6
OFFSET CHANGED FROM -6 TO -9
OFFSET CHANGED FROM -9 TO -6
OFFSET CHANGED FROM -6 TO -6
OFFSET CHANGED FROM -6 TO -9
OFFSET CHANGED FROM -9 TO -6
OFFSET CHANGED FROM -6 TO -6
OFFSET CHANGED FROM -6 TO -6
OFFSET CHANGED FROM -6 TO -6
OFFSET CHANGED FROM -6 TO -6
OFFSET CHANGED FROM -6 TO -6
OFFSET CHANGED FROM -6 TO -6
OFFSET CHANGED FROM -6 TO -6
OFFSET CHANGED FROM -6 TO -6
OFFSET CHANGED FROM -6 TO -6
OFFSET CHANGED FROM -6 TO -6
OFFSET CHANGED FROM -6 TO -6
OFFSET CHANGED FROM -6 TO -15
OFFSET CHANGED FROM -15 TO -9
OFFSET CHANGED FROM -9 TO -6
OFFSET CHANGED FROM -6 TO -9
OFFSET CHANGED FROM -9 TO -9
OFFSET CHANGED FROM -9 TO -6
OFFSET CHANGED FROM -6 TO -6
OFFSET CHANGED FROM -6 TO -6
OFFSET CHANGED FROM -6 TO -6
OFFSET CHANGED FROM -6 TO -6
OFFSET CHANGED FROM -6 TO -12
OFFSET CHANGED FROM -12 TO -6
OFFSET CHANGED FROM -6 TO -6
OFFSET CHANGED FROM -6 TO -6
OFFSET CHANGED FROM -6 TO -6
OFFSET CHANGED FROM -6 TO -6
OFFSET CHANGED FROM -6 TO -9
OFFSET CHANGED FROM -9 TO -9
OFFSET CHANGED FROM -9 TO -6
OFFSET CHANGED FROM -6 TO -6
OFFSET CHANGED FROM -6 TO -6
OFFSET CHANGED FROM -6 TO -6
OFFSET CHANGED FROM -6 TO -6
OFFSET CHANGED FROM -6 TO -6
OFFSET CHANGED FROM -6 TO -9
OFFSET CHANGED FROM -9 TO -6
OFFSET CHANGED FROM -6 TO -6
OFFSET CHANGED FROM -6 TO -12
OFFSET CHANGED FROM -12 TO -6
OFFSET CHANGED FROM -6 TO -9
OFFSET CHANGED FROM -9 TO -12
OFFSET CHANGED FROM -12 TO -6
OFFSET CHANGED FROM -6 TO -12
OFFSET CHANGED FROM -12 TO -9
OFFSET CHANGED FROM -9 TO -9
OFFSET CHANGED FROM -9 TO -6
OFFSET CHANGED FROM -6 TO -6
OFFSET CHANGED FROM -6 TO -6
OFFSET CHANGED FROM -6 TO -6
OFFSET CHANGED FROM -6 TO -6
OFFSET CHANGED FROM -6 TO -6
OFFSET CHANGED FROM -6 TO -6
OFFSET CHANGED FROM -6 TO -6
OFFSET CHANGED FROM -6 TO -6
OFFSET CHANGED FROM -6 TO -6
OFFSET CHANGED FROM -6 TO -6
OFFSET CHANGED FROM -6 TO -6
OFFSET CHANGED FROM -6 TO -6
OFFSET CHANGED FROM -6 TO -6
OFFSET CHANGED FROM -6 TO -6
OFFSET CHANGED FROM -6 TO -6
OFFSET CHANGED FROM -6 TO -9
OFFSET CHANGED FROM -9 TO -6
OFFSET CHANGED FROM -6 TO -6
OFFSET CHANGED FROM -6 TO -6
OFFSET CHANGED FROM -6 TO -9
OFFSET CHANGED FROM -9 TO -9
OFFSET CHANGED FROM -9 TO -6
OFFSET CHANGED FROM -6 TO -6
OFFSET CHANGED FROM -6 TO -12
OFFSET CHANGED FROM -12 TO -6
OFFSET CHANGED FROM -6 TO -6
OFFSET CHANGED FROM -6 TO -6
OFFSET CHANGED FROM -6 TO -6
OFFSET CHANGED FROM -6 TO -9
OFFSET CHANGED FROM -9 TO -6
OFFSET CHANGED FROM -6 TO -9
OFFSET CHANGED FROM -9 TO -6
OFFSET CHANGED FROM -6 TO -9
OFFSET CHANGED FROM -9 TO -9
OFFSET CHANGED FROM -9 TO -6
OFFSET CHANGED FROM -6 TO -9
OFFSET CHANGED FROM -9 TO -6
OFFSET CHANGED FROM -6 TO -6
OFFSET CHANGED FROM -6 TO -6
OFFSET CHANGED FROM -6 TO -6
OFFSET CHANGED FROM -6 TO -6
OFFSET CHANGED FROM -6 TO -6
OFFSET CHANGED FROM -6 TO -12
OFFSET CHANGED FROM -12 TO -12
OFFSET CHANGED FROM -12 TO -12
OFFSET CHANGED FROM -12 TO -9
OFFSET CHANGED FROM -9 TO -6
OFFSET CHANGED FROM -6 TO -6
OFFSET CHANGED FROM -6 TO -6
OFFSET CHANGED FROM -6 TO -9
OFFSET CHANGED FROM -9 TO -6
OFFSET CHANGED FROM -6 TO -6
OFFSET CHANGED FROM -6 TO -9
OFFSET CHANGED FROM -9 TO -9
OFFSET CHANGED FROM -9 TO -6
OFFSET CHANGED FROM -6 TO -6
OFFSET CHANGED FROM -6 TO -6
OFFSET CHANGED FROM -6 TO -9
OFFSET CHANGED FROM -9 TO -9
OFFSET CHANGED FROM -9 TO -6
OFFSET CHANGED FROM -6 TO -6
OFFSET CHANGED FROM -6 TO -6
OFFSET CHANGED FROM -6 TO -6
OFFSET CHANGED FROM -6 TO -6
OFFSET CHANGED FROM -6 TO -9
OFFSET CHANGED FROM -9 TO -6
OFFSET CHANGED FROM -6 TO -6
OFFSET CHANGED FROM -6 TO -9
OFFSET CHANGED FROM -9 TO -9
OFFSET CHANGED FROM -9 TO -6
OFFSET CHANGED FROM -6 TO -6
OFFSET CHANGED FROM -6 TO -6
OFFSET CHANGED FROM -6 TO -6
OFFSET CHANGED FROM -6 TO -6
OFFSET CHANGED FROM -6 TO -6
OFFSET CHANGED FROM -6 TO -6
OFFSET CHANGED FROM -6 TO -9
OFFSET CHANGED FROM -9 TO -9
OFFSET CHANGED FROM -9 TO -6
OFFSET CHANGED FROM -6 TO -15
OFFSET CHANGED FROM -15 TO -6
OFFSET CHANGED FROM -6 TO -6
OFFSET CHANGED FROM -6 TO -6
OFFSET CHANGED FROM -6 TO -6
OFFSET CHANGED FROM -6 TO -6
OFFSET CHANGED FROM -6 TO -6
OFFSET CHANGED FROM -6 TO -6
OFFSET CHANGED FROM -6 TO -6
OFFSET CHANGED FROM -6 TO -6
OFFSET CHANGED FROM -6 TO -9
OFFSET CHANGED FROM -9 TO -9
OFFSET CHANGED FROM -9 TO -6
OFFSET CHANGED FROM -6 TO -9
OFFSET CHANGED FROM -9 TO -12
OFFSET CHANGED FROM -12 TO -6
OFFSET CHANGED FROM -6 TO -9
OFFSET CHANGED FROM -9 TO -9
OFFSET CHANGED FROM -9 TO -9
OFFSET CHANGED FROM -9 TO -6
OFFSET CHANGED FROM -6 TO -9
OFFSET CHANGED FROM -9 TO -6
OFFSET CHANGED FROM -6 TO -6
OFFSET CHANGED FROM -6 TO -6
OFFSET CHANGED FROM -6 TO -6
OFFSET CHANGED FROM -6 TO -6
OFFSET CHANGED FROM -6 TO -6
OFFSET CHANGED FROM -6 TO -6
OFFSET CHANGED FROM -6 TO -6
OFFSET CHANGED FROM -6 TO -9
OFFSET CHANGED FROM -9 TO -6
OFFSET CHANGED FROM -6 TO -6
OFFSET CHANGED FROM -6 TO -12
OFFSET CHANGED FROM -12 TO -6
OFFSET CHANGED FROM -6 TO -6
OFFSET CHANGED FROM -6 TO -6
OFFSET CHANGED FROM -6 TO -6
OFFSET CHANGED FROM -6 TO -6
OFFSET CHANGED FROM -6 TO -6
OFFSET CHANGED FROM -6 TO -12
OFFSET CHANGED FROM -12 TO -6
OFFSET CHANGED FROM -6 TO -6
OFFSET CHANGED FROM -6 TO -9
OFFSET CHANGED FROM -9 TO -12
OFFSET CHANGED FROM -12 TO -6
OFFSET CHANGED FROM -6 TO -6
OFFSET CHANGED FROM -6 TO -12
OFFSET CHANGED FROM -12 TO -12
OFFSET CHANGED FROM -12 TO -6
OFFSET CHANGED FROM -6 TO -6
OFFSET CHANGED FROM -6 TO -9
OFFSET CHANGED FROM -9 TO -6
OFFSET CHANGED FROM -6 TO -6
OFFSET CHANGED FROM -6 TO -6
OFFSET CHANGED FROM -6 TO -6
OFFSET CHANGED FROM -6 TO -12
OFFSET CHANGED FROM -12 TO -9
OFFSET CHANGED FROM -9 TO -6
OFFSET CHANGED FROM -6 TO -9
OFFSET CHANGED FROM -9 TO -9
OFFSET CHANGED FROM -9 TO -9
OFFSET CHANGED FROM -9 TO -15
OFFSET CHANGED FROM -15 TO -9
OFFSET CHANGED FROM -9 TO -6
OFFSET CHANGED FROM -6 TO -12
OFFSET CHANGED FROM -12 TO -12
OFFSET CHANGED FROM -12 TO -6
OFFSET CHANGED FROM -6 TO -6
OFFSET CHANGED FROM -6 TO -12
OFFSET CHANGED FROM -12 TO -6
OFFSET CHANGED FROM -6 TO -12
OFFSET CHANGED FROM -12 TO -12
OFFSET CHANGED FROM -12 TO -6
OFFSET CHANGED FROM -6 TO -6
OFFSET CHANGED FROM -6 TO -6
OFFSET CHANGED FROM -6 TO -6
OFFSET CHANGED FROM -6 TO -6
OFFSET CHANGED FROM -6 TO -6
OFFSET CHANGED FROM -6 TO -6
OFFSET CHANGED FROM -6 TO -6
OFFSET CHANGED FROM -6 TO -9
OFFSET CHANGED FROM -9 TO -6
OFFSET CHANGED FROM -6 TO -6
OFFSET CHANGED FROM -6 TO -6
OFFSET CHANGED FROM -6 TO -9
OFFSET CHANGED FROM -9 TO -12
OFFSET CHANGED FROM -12 TO -6
PREFETCHING INTO L2 w/ PREFETCH SCORE 31 (MSHR OCC = 29)
PREFETCHING INTO L2 w/ PREFETCH SCORE 31 (MSHR OCC = 29)
PREFETCHING INTO L2 w/ PREFETCH SCORE 31 (MSHR OCC = 30)
PREFETCHING INTO L2 w/ PREFETCH SCORE 31 (MSHR OCC = 29)
OFFSET CHANGED FROM -6 TO -6
OFFSET CHANGED FROM -6 TO -6
OFFSET CHANGED FROM -6 TO -6
OFFSET CHANGED FROM -6 TO -6
OFFSET CHANGED FROM -6 TO -6
OFFSET CHANGED FROM -6 TO -6
OFFSET CHANGED FROM -6 TO -6
OFFSET CHANGED FROM -6 TO -6
OFFSET CHANGED FROM -6 TO -6
OFFSET CHANGED FROM -6 TO -6
OFFSET CHANGED FROM -6 TO -12
OFFSET CHANGED FROM -12 TO -12
OFFSET CHANGED FROM -12 TO -6
OFFSET CHANGED FROM -6 TO -6
OFFSET CHANGED FROM -6 TO -12
OFFSET CHANGED FROM -12 TO -6
OFFSET CHANGED FROM -6 TO -6
OFFSET CHANGED FROM -6 TO -6
OFFSET CHANGED FROM -6 TO -9
OFFSET CHANGED FROM -9 TO -6
OFFSET CHANGED FROM -6 TO -6
OFFSET CHANGED FROM -6 TO -6
OFFSET CHANGED FROM -6 TO -6
OFFSET CHANGED FROM -6 TO -12
OFFSET CHANGED FROM -12 TO -12
OFFSET CHANGED FROM -12 TO -6
OFFSET CHANGED FROM -6 TO -6
OFFSET CHANGED FROM -6 TO -6
OFFSET CHANGED FROM -6 TO -6
OFFSET CHANGED FROM -6 TO -6
OFFSET CHANGED FROM -6 TO -6
OFFSET CHANGED FROM -6 TO -9
OFFSET CHANGED FROM -9 TO -9
OFFSET CHANGED FROM -9 TO -6
OFFSET CHANGED FROM -6 TO -6
OFFSET CHANGED FROM -6 TO -9
OFFSET CHANGED FROM -9 TO -6
OFFSET CHANGED FROM -6 TO -6
OFFSET CHANGED FROM -6 TO -6
OFFSET CHANGED FROM -6 TO -9
OFFSET CHANGED FROM -9 TO -6
OFFSET CHANGED FROM -6 TO -6
OFFSET CHANGED FROM -6 TO -6
OFFSET CHANGED FROM -6 TO -6
OFFSET CHANGED FROM -6 TO -6
OFFSET CHANGED FROM -6 TO -6
OFFSET CHANGED FROM -6 TO -6
OFFSET CHANGED FROM -6 TO -3
OFFSET CHANGED FROM -3 TO -3
OFFSET CHANGED FROM -3 TO -3
OFFSET CHANGED FROM -3 TO -3
OFFSET CHANGED FROM -3 TO -3
OFFSET CHANGED FROM -3 TO -3
OFFSET CHANGED FROM -3 TO -6
OFFSET CHANGED FROM -6 TO -3
OFFSET CHANGED FROM -3 TO -3
OFFSET CHANGED FROM -3 TO -3
OFFSET CHANGED FROM -3 TO -6
OFFSET CHANGED FROM -6 TO -3
OFFSET CHANGED FROM -3 TO -3
[...]
OFFSET CHANGED FROM -6 TO -6
OFFSET CHANGED FROM -6 TO -6
OFFSET CHANGED FROM -6 TO -6
OFFSET CHANGED FROM -6 TO -6
OFFSET CHANGED FROM -6 TO -6
OFFSET CHANGED FROM -6 TO -6
OFFSET CHANGED FROM -6 TO -6
OFFSET CHANGED FROM -6 TO -6
OFFSET CHANGED FROM -6 TO -9
OFFSET CHANGED FROM -9 TO -6
OFFSET CHANGED FROM -6 TO -6
OFFSET CHANGED FROM -6 TO -9
OFFSET CHANGED FROM -9 TO -9
OFFSET CHANGED FROM -9 TO -6
OFFSET CHANGED FROM -6 TO -6
OFFSET CHANGED FROM -6 TO -6
OFFSET CHANGED FROM -6 TO -6
OFFSET CHANGED FROM -6 TO -6
OFFSET CHANGED FROM -6 TO -6
OFFSET CHANGED FROM -6 TO -6
OFFSET CHANGED FROM -6 TO -9
OFFSET CHANGED FROM -9 TO -9
OFFSET CHANGED FROM -9 TO -6
OFFSET CHANGED FROM -6 TO -9
OFFSET CHANGED FROM -9 TO -9
OFFSET CHANGED FROM -9 TO -6
OFFSET CHANGED FROM -6 TO -6
OFFSET CHANGED FROM -6 TO -6
OFFSET CHANGED FROM -6 TO -6
OFFSET CHANGED FROM -6 TO -6
OFFSET CHANGED FROM -6 TO -6
OFFSET CHANGED FROM -6 TO -6
OFFSET CHANGED FROM -6 TO -15
OFFSET CHANGED FROM -15 TO -15
OFFSET CHANGED FROM -15 TO -6
OFFSET CHANGED FROM -6 TO -6
OFFSET CHANGED FROM -6 TO -6
OFFSET CHANGED FROM -6 TO -6
OFFSET CHANGED FROM -6 TO -6
OFFSET CHANGED FROM -6 TO -6
OFFSET CHANGED FROM -6 TO -9
OFFSET CHANGED FROM -9 TO -9
OFFSET CHANGED FROM -9 TO -9
OFFSET CHANGED FROM -9 TO -6
OFFSET CHANGED FROM -6 TO -9
OFFSET CHANGED FROM -9 TO -9
OFFSET CHANGED FROM -9 TO -12
OFFSET CHANGED FROM -12 TO -12
OFFSET CHANGED FROM -12 TO -6
OFFSET CHANGED FROM -6 TO -6
OFFSET CHANGED FROM -6 TO -6
OFFSET CHANGED FROM -6 TO -9
OFFSET CHANGED FROM -9 TO -6
OFFSET CHANGED FROM -6 TO -6
OFFSET CHANGED FROM -6 TO -6
OFFSET CHANGED FROM -6 TO -6
OFFSET CHANGED FROM -6 TO -9
OFFSET CHANGED FROM -9 TO -9
OFFSET CHANGED FROM -9 TO -6
OFFSET CHANGED FROM -6 TO -6
OFFSET CHANGED FROM -6 TO -6
OFFSET CHANGED FROM -6 TO -6
OFFSET CHANGED FROM -6 TO -6
OFFSET CHANGED FROM -6 TO -6
OFFSET CHANGED FROM -6 TO -6
OFFSET CHANGED FROM -6 TO -6
OFFSET CHANGED FROM -6 TO -6
OFFSET CHANGED FROM -6 TO -6
OFFSET CHANGED FROM -6 TO -6
OFFSET CHANGED FROM -6 TO -6
OFFSET CHANGED FROM -6 TO -6
OFFSET CHANGED FROM -6 TO -6
OFFSET CHANGED FROM -6 TO -6
OFFSET CHANGED FROM -6 TO -6
OFFSET CHANGED FROM -6 TO -6
OFFSET CHANGED FROM -6 TO -6
OFFSET CHANGED FROM -6 TO -6
OFFSET CHANGED FROM -6 TO -6
OFFSET CHANGED FROM -6 TO -6
OFFSET CHANGED FROM -6 TO -6
OFFSET CHANGED FROM -6 TO -9
OFFSET CHANGED FROM -9 TO -6
OFFSET CHANGED FROM -6 TO -6
OFFSET CHANGED FROM -6 TO -9
OFFSET CHANGED FROM -9 TO -6
OFFSET CHANGED FROM -6 TO -6
OFFSET CHANGED FROM -6 TO -9
OFFSET CHANGED FROM -9 TO -6
OFFSET CHANGED FROM -6 TO -6
OFFSET CHANGED FROM -6 TO -6
OFFSET CHANGED FROM -6 TO -6
OFFSET CHANGED FROM -6 TO -12
OFFSET CHANGED FROM -12 TO -6
OFFSET CHANGED FROM -6 TO -12
OFFSET CHANGED FROM -12 TO -12
OFFSET CHANGED FROM -12 TO -9
OFFSET CHANGED FROM -9 TO -6
PREFETCHING INTO L2 w/ PREFETCH SCORE 31 (MSHR OCC = 29)
PREFETCHING INTO L2 w/ PREFETCH SCORE 31 (MSHR OCC = 30)
PREFETCHING INTO L2 w/ PREFETCH SCORE 31 (MSHR OCC = 31)
OFFSET CHANGED FROM -6 TO -9
OFFSET CHANGED FROM -9 TO -6
OFFSET CHANGED FROM -6 TO -6
OFFSET CHANGED FROM -6 TO -6
OFFSET CHANGED FROM -6 TO -6
OFFSET CHANGED FROM -6 TO -6
OFFSET CHANGED FROM -6 TO -6
OFFSET CHANGED FROM -6 TO -6
OFFSET CHANGED FROM -6 TO -6
OFFSET CHANGED FROM -6 TO -12
OFFSET CHANGED FROM -12 TO -12
OFFSET CHANGED FROM -12 TO -6
OFFSET CHANGED FROM -6 TO -6
OFFSET CHANGED FROM -6 TO -9
OFFSET CHANGED FROM -9 TO -6
OFFSET CHANGED FROM -6 TO -12
OFFSET CHANGED FROM -12 TO -9
OFFSET CHANGED FROM -9 TO -6
OFFSET CHANGED FROM -6 TO -9
OFFSET CHANGED FROM -9 TO -6
OFFSET CHANGED FROM -6 TO -6
OFFSET CHANGED FROM -6 TO -6
OFFSET CHANGED FROM -6 TO -6
OFFSET CHANGED FROM -6 TO -6
OFFSET CHANGED FROM -6 TO -9
OFFSET CHANGED FROM -9 TO -6
OFFSET CHANGED FROM -6 TO -6
OFFSET CHANGED FROM -6 TO -6
OFFSET CHANGED FROM -6 TO -12
OFFSET CHANGED FROM -12 TO -6
OFFSET CHANGED FROM -6 TO -6
OFFSET CHANGED FROM -6 TO -6
OFFSET CHANGED FROM -6 TO -6
OFFSET CHANGED FROM -6 TO -6
OFFSET CHANGED FROM -6 TO -6
OFFSET CHANGED FROM -6 TO -6
OFFSET CHANGED FROM -6 TO -6
OFFSET CHANGED FROM -6 TO -9
OFFSET CHANGED FROM -9 TO -9
OFFSET CHANGED FROM -9 TO -6
OFFSET CHANGED FROM -6 TO -6
OFFSET CHANGED FROM -6 TO -6
OFFSET CHANGED FROM -6 TO -6
OFFSET CHANGED FROM -6 TO -6
OFFSET CHANGED FROM -6 TO -6
OFFSET CHANGED FROM -6 TO -9
OFFSET CHANGED FROM -9 TO -3
OFFSET CHANGED FROM -3 TO -6
OFFSET CHANGED FROM -6 TO -6
Heartbeat CPU 0 instructions: 280000000 cycles: 538778749 heartbeat IPC: 0.329422 cumulative IPC: 0.444101 (Simulation time: 0 hr 17 min 8 sec) 
OFFSET CHANGED FROM -6 TO -3
OFFSET CHANGED FROM -3 TO -6
OFFSET CHANGED FROM -6 TO -3
OFFSET CHANGED FROM -3 TO -3
OFFSET CHANGED FROM -3 TO -6
OFFSET CHANGED FROM -6 TO -6
OFFSET CHANGED FROM -6 TO -9
OFFSET CHANGED FROM -9 TO -6
OFFSET CHANGED FROM -6 TO -6
OFFSET CHANGED FROM -6 TO -9
OFFSET CHANGED FROM -9 TO -9
OFFSET CHANGED FROM -9 TO -6
OFFSET CHANGED FROM -6 TO -6
OFFSET CHANGED FROM -6 TO -9
OFFSET CHANGED FROM -9 TO -9
OFFSET CHANGED FROM -9 TO -9
OFFSET CHANGED FROM -9 TO -9
OFFSET CHANGED FROM -9 TO -9
OFFSET CHANGED FROM -9 TO -9
OFFSET CHANGED FROM -9 TO -6
OFFSET CHANGED FROM -6 TO -6
OFFSET CHANGED FROM -6 TO -9
OFFSET CHANGED FROM -9 TO -6
OFFSET CHANGED FROM -6 TO -6
OFFSET CHANGED FROM -6 TO -6
OFFSET CHANGED FROM -6 TO -9
OFFSET CHANGED FROM -9 TO -9
OFFSET CHANGED FROM -9 TO -6
OFFSET CHANGED FROM -6 TO -6
OFFSET CHANGED FROM -6 TO -6
OFFSET CHANGED FROM -6 TO -6
OFFSET CHANGED FROM -6 TO -6
OFFSET CHANGED FROM -6 TO -6
OFFSET CHANGED FROM -6 TO -6
OFFSET CHANGED FROM -6 TO -6
OFFSET CHANGED FROM -6 TO -6
OFFSET CHANGED FROM -6 TO -6
OFFSET CHANGED FROM -6 TO -9
OFFSET CHANGED FROM -9 TO -9
OFFSET CHANGED FROM -9 TO -9
OFFSET CHANGED FROM -9 TO -9
OFFSET CHANGED FROM -9 TO -6
OFFSET CHANGED FROM -6 TO -6
OFFSET CHANGED FROM -6 TO -6
OFFSET CHANGED FROM -6 TO -3
OFFSET CHANGED FROM -3 TO -3
OFFSET CHANGED FROM -3 TO -3
OFFSET CHANGED FROM -3 TO -3
OFFSET CHANGED FROM -3 TO -6
OFFSET CHANGED FROM -6 TO -3
OFFSET CHANGED FROM -3 TO -3
OFFSET CHANGED FROM -3 TO -6
OFFSET CHANGED FROM -6 TO -3
OFFSET CHANGED FROM -3 TO -3
OFFSET CHANGED FROM -3 TO -3
OFFSET CHANGED FROM -3 TO -3
OFFSET CHANGED FROM -3 TO -6
OFFSET CHANGED FROM -6 TO -6
OFFSET CHANGED FROM -6 TO -9
OFFSET CHANGED FROM -9 TO -6
OFFSET CHANGED FROM -6 TO -6
OFFSET CHANGED FROM -6 TO -9
OFFSET CHANGED FROM -9 TO -12
OFFSET CHANGED FROM -12 TO -9
OFFSET CHANGED FROM -9 TO -9
OFFSET CHANGED FROM -9 TO -9
OFFSET CHANGED FROM -9 TO -6
OFFSET CHANGED FROM -6 TO -9
OFFSET CHANGED FROM -9 TO -9
OFFSET CHANGED FROM -9 TO -6
OFFSET CHANGED FROM -6 TO -12
OFFSET CHANGED FROM -12 TO -6
OFFSET CHANGED FROM -6 TO -6
OFFSET CHANGED FROM -6 TO -6
OFFSET CHANGED FROM -6 TO -9
OFFSET CHANGED FROM -9 TO -6
OFFSET CHANGED FROM -6 TO -9
OFFSET CHANGED FROM -9 TO -6
OFFSET CHANGED FROM -6 TO -6
OFFSET CHANGED FROM -6 TO -6
OFFSET CHANGED FROM -6 TO -6
OFFSET CHANGED FROM -6 TO -6
OFFSET CHANGED FROM -6 TO -12
OFFSET CHANGED FROM -12 TO -9
OFFSET CHANGED FROM -9 TO -6
OFFSET CHANGED FROM -6 TO -12
OFFSET CHANGED FROM -12 TO -9
OFFSET CHANGED FROM -9 TO -6
OFFSET CHANGED FROM -6 TO -12
OFFSET CHANGED FROM -12 TO -9
OFFSET CHANGED FROM -9 TO -6
OFFSET CHANGED FROM -6 TO -9
OFFSET CHANGED FROM -9 TO -6
OFFSET CHANGED FROM -6 TO -6
OFFSET CHANGED FROM -6 TO -3
OFFSET CHANGED FROM -3 TO -3
OFFSET CHANGED FROM -3 TO -3
OFFSET CHANGED FROM -3 TO -3
OFFSET CHANGED FROM -3 TO -6
Heartbeat CPU 0 instructions: 290000003 cycles: 551234503 heartbeat IPC: 0.802842 cumulative IPC: 0.452526 (Simulation time: 0 hr 17 min 36 sec) 
OFFSET CHANGED FROM -6 TO -6
OFFSET CHANGED FROM -6 TO -6
OFFSET CHANGED FROM -6 TO -3
OFFSET CHANGED FROM -3 TO -2
OFFSET CHANGED FROM -2 TO -3
OFFSET CHANGED FROM -3 TO -6
OFFSET CHANGED FROM -6 TO -3
OFFSET CHANGED FROM -3 TO -3
OFFSET CHANGED FROM -3 TO -3
OFFSET CHANGED FROM -3 TO -3
OFFSET CHANGED FROM -3 TO -3
OFFSET CHANGED FROM -3 TO -9
OFFSET CHANGED FROM -9 TO -6
OFFSET CHANGED FROM -6 TO -3
OFFSET CHANGED FROM -3 TO -6
OFFSET CHANGED FROM -6 TO -6
OFFSET CHANGED FROM -6 TO -6
OFFSET CHANGED FROM -6 TO -12
OFFSET CHANGED FROM -12 TO -6
OFFSET CHANGED FROM -6 TO -9
OFFSET CHANGED FROM -9 TO -9
OFFSET CHANGED FROM -9 TO -6
OFFSET CHANGED FROM -6 TO -6
OFFSET CHANGED FROM -6 TO -6
OFFSET CHANGED FROM -6 TO -6
OFFSET CHANGED FROM -6 TO -6
OFFSET CHANGED FROM -6 TO -6
OFFSET CHANGED FROM -6 TO -6
OFFSET CHANGED FROM -6 TO -6
OFFSET CHANGED FROM -6 TO -9
OFFSET CHANGED FROM -9 TO -6
OFFSET CHANGED FROM -6 TO -6
OFFSET CHANGED FROM -6 TO -6
OFFSET CHANGED FROM -6 TO -9
OFFSET CHANGED FROM -9 TO -6
OFFSET CHANGED FROM -6 TO -6
OFFSET CHANGED FROM -6 TO -6
OFFSET CHANGED FROM -6 TO -6
OFFSET CHANGED FROM -6 TO -6
OFFSET CHANGED FROM -6 TO -6
OFFSET CHANGED FROM -6 TO -6
OFFSET CHANGED FROM -6 TO -6
OFFSET CHANGED FROM -6 TO -6
OFFSET CHANGED FROM -6 TO -6
OFFSET CHANGED FROM -6 TO -6
OFFSET CHANGED FROM -6 TO -9
OFFSET CHANGED FROM -9 TO -12
OFFSET CHANGED FROM -12 TO -6
OFFSET CHANGED FROM -6 TO -6
OFFSET CHANGED FROM -6 TO -6
OFFSET CHANGED FROM -6 TO -12
PREFETCHING INTO L2 w/ PREFETCH SCORE 31 (MSHR OCC = 29)
OFFSET CHANGED FROM -12 TO -12
OFFSET CHANGED FROM -12 TO -12
OFFSET CHANGED FROM -12 TO -9
OFFSET CHANGED FROM -9 TO -6
OFFSET CHANGED FROM -6 TO -15
OFFSET CHANGED FROM -15 TO -6
OFFSET CHANGED FROM -6 TO -12
OFFSET CHANGED FROM -12 TO -6
OFFSET CHANGED FROM -6 TO -6
OFFSET CHANGED FROM -6 TO -6
OFFSET CHANGED FROM -6 TO -6
OFFSET CHANGED FROM -6 TO -6
OFFSET CHANGED FROM -6 TO -6
OFFSET CHANGED FROM -6 TO -6
OFFSET CHANGED FROM -6 TO -6
OFFSET CHANGED FROM -6 TO -6
OFFSET CHANGED FROM -6 TO -6
OFFSET CHANGED FROM -6 TO -6
OFFSET CHANGED FROM -6 TO -6
OFFSET CHANGED FROM -6 TO -6
OFFSET CHANGED FROM -6 TO -9
OFFSET CHANGED FROM -9 TO -6
OFFSET CHANGED FROM -6 TO -6
OFFSET CHANGED FROM -6 TO -6
OFFSET CHANGED FROM -6 TO -6
OFFSET CHANGED FROM -6 TO -6
OFFSET CHANGED FROM -6 TO -9
OFFSET CHANGED FROM -9 TO -6
OFFSET CHANGED FROM -6 TO -6
OFFSET CHANGED FROM -6 TO -6
OFFSET CHANGED FROM -6 TO -6
OFFSET CHANGED FROM -6 TO -6
OFFSET CHANGED FROM -6 TO -6
OFFSET CHANGED FROM -6 TO -15
OFFSET CHANGED FROM -15 TO -9
OFFSET CHANGED FROM -9 TO -6
OFFSET CHANGED FROM -6 TO -6
OFFSET CHANGED FROM -6 TO -6
OFFSET CHANGED FROM -6 TO -6
OFFSET CHANGED FROM -6 TO -6
OFFSET CHANGED FROM -6 TO -6
OFFSET CHANGED FROM -6 TO -6
OFFSET CHANGED FROM -6 TO -6
OFFSET CHANGED FROM -6 TO -6
OFFSET CHANGED FROM -6 TO -6
OFFSET CHANGED FROM -6 TO -6
OFFSET CHANGED FROM -6 TO -12
OFFSET CHANGED FROM -12 TO -12
OFFSET CHANGED FROM -12 TO -9
OFFSET CHANGED FROM -9 TO -6
OFFSET CHANGED FROM -6 TO -9
OFFSET CHANGED FROM -9 TO -9
OFFSET CHANGED FROM -9 TO -6
OFFSET CHANGED FROM -6 TO -6
OFFSET CHANGED FROM -6 TO -9
OFFSET CHANGED FROM -9 TO -6
OFFSET CHANGED FROM -6 TO -6
OFFSET CHANGED FROM -6 TO -6
OFFSET CHANGED FROM -6 TO -6
OFFSET CHANGED FROM -6 TO -6
OFFSET CHANGED FROM -6 TO -9
OFFSET CHANGED FROM -9 TO -6
OFFSET CHANGED FROM -6 TO -6
OFFSET CHANGED FROM -6 TO -9
OFFSET CHANGED FROM -9 TO -6
OFFSET CHANGED FROM -6 TO -6
OFFSET CHANGED FROM -6 TO -9
OFFSET CHANGED FROM -9 TO -6
OFFSET CHANGED FROM -6 TO -6
OFFSET CHANGED FROM -6 TO -9
OFFSET CHANGED FROM -9 TO -6
OFFSET CHANGED FROM -6 TO -6
OFFSET CHANGED FROM -6 TO -9
OFFSET CHANGED FROM -9 TO -12
OFFSET CHANGED FROM -12 TO -6
OFFSET CHANGED FROM -6 TO -6
OFFSET CHANGED FROM -6 TO -12
OFFSET CHANGED FROM -12 TO -9
OFFSET CHANGED FROM -9 TO -6
OFFSET CHANGED FROM -6 TO -6
OFFSET CHANGED FROM -6 TO -15
OFFSET CHANGED FROM -15 TO -9
OFFSET CHANGED FROM -9 TO -6
OFFSET CHANGED FROM -6 TO -6
OFFSET CHANGED FROM -6 TO -12
OFFSET CHANGED FROM -12 TO -6
OFFSET CHANGED FROM -6 TO -9
OFFSET CHANGED FROM -9 TO -12
OFFSET CHANGED FROM -12 TO -6
OFFSET CHANGED FROM -6 TO -12
OFFSET CHANGED FROM -12 TO -12
OFFSET CHANGED FROM -12 TO -6
OFFSET CHANGED FROM -6 TO -6
OFFSET CHANGED FROM -6 TO -9
OFFSET CHANGED FROM -9 TO -9
OFFSET CHANGED FROM -9 TO -12
OFFSET CHANGED FROM -12 TO -6
OFFSET CHANGED FROM -6 TO -6
OFFSET CHANGED FROM -6 TO -6
OFFSET CHANGED FROM -6 TO -12
OFFSET CHANGED FROM -12 TO -9
OFFSET CHANGED FROM -9 TO -12
OFFSET CHANGED FROM -12 TO -6
OFFSET CHANGED FROM -6 TO -6
OFFSET CHANGED FROM -6 TO -6
OFFSET CHANGED FROM -6 TO -9
OFFSET CHANGED FROM -9 TO -6
OFFSET CHANGED FROM -6 TO -9
OFFSET CHANGED FROM -9 TO -6
OFFSET CHANGED FROM -6 TO -6
OFFSET CHANGED FROM -6 TO -6
OFFSET CHANGED FROM -6 TO -9
OFFSET CHANGED FROM -9 TO -6
OFFSET CHANGED FROM -6 TO -6
OFFSET CHANGED FROM -6 TO -12
OFFSET CHANGED FROM -12 TO -9
OFFSET CHANGED FROM -9 TO -6
OFFSET CHANGED FROM -6 TO -9
OFFSET CHANGED FROM -9 TO -6
OFFSET CHANGED FROM -6 TO -6
OFFSET CHANGED FROM -6 TO -9
OFFSET CHANGED FROM -9 TO -9
OFFSET CHANGED FROM -9 TO -12
OFFSET CHANGED FROM -12 TO -12
OFFSET CHANGED FROM -12 TO -9
OFFSET CHANGED FROM -9 TO -6
OFFSET CHANGED FROM -6 TO -12
OFFSET CHANGED FROM -12 TO -9
OFFSET CHANGED FROM -9 TO -9
OFFSET CHANGED FROM -9 TO -6
OFFSET CHANGED FROM -6 TO -6
OFFSET CHANGED FROM -6 TO -12
OFFSET CHANGED FROM -12 TO -9
OFFSET CHANGED FROM -9 TO -6
OFFSET CHANGED FROM -6 TO -12
OFFSET CHANGED FROM -12 TO -12
OFFSET CHANGED FROM -12 TO -6
OFFSET CHANGED FROM -6 TO -9
OFFSET CHANGED FROM -9 TO -9
OFFSET CHANGED FROM -9 TO -6
OFFSET CHANGED FROM -6 TO -12
OFFSET CHANGED FROM -12 TO -9
OFFSET CHANGED FROM -9 TO -6
OFFSET CHANGED FROM -6 TO -9
OFFSET CHANGED FROM -9 TO -9
OFFSET CHANGED FROM -9 TO -6
OFFSET CHANGED FROM -6 TO -6
OFFSET CHANGED FROM -6 TO -6
OFFSET CHANGED FROM -6 TO -6
OFFSET CHANGED FROM -6 TO -6
OFFSET CHANGED FROM -6 TO -6
OFFSET CHANGED FROM -6 TO -6
OFFSET CHANGED FROM -6 TO -6
OFFSET CHANGED FROM -6 TO -6
OFFSET CHANGED FROM -6 TO -9
OFFSET CHANGED FROM -9 TO -9
OFFSET CHANGED FROM -9 TO -6
OFFSET CHANGED FROM -6 TO -9
OFFSET CHANGED FROM -9 TO -6
OFFSET CHANGED FROM -6 TO -6
OFFSET CHANGED FROM -6 TO -6
OFFSET CHANGED FROM -6 TO -6
OFFSET CHANGED FROM -6 TO -6
OFFSET CHANGED FROM -6 TO -6
OFFSET CHANGED FROM -6 TO -6
OFFSET CHANGED FROM -6 TO -6
OFFSET CHANGED FROM -6 TO -9
OFFSET CHANGED FROM -9 TO -6
OFFSET CHANGED FROM -6 TO -9
OFFSET CHANGED FROM -9 TO -6
OFFSET CHANGED FROM -6 TO -6
OFFSET CHANGED FROM -6 TO -6
OFFSET CHANGED FROM -6 TO -6
OFFSET CHANGED FROM -6 TO -6
OFFSET CHANGED FROM -6 TO -9
OFFSET CHANGED FROM -9 TO -6
OFFSET CHANGED FROM -6 TO -6
OFFSET CHANGED FROM -6 TO -6
OFFSET CHANGED FROM -6 TO -6
OFFSET CHANGED FROM -6 TO -6
OFFSET CHANGED FROM -6 TO -6
OFFSET CHANGED FROM -6 TO -6
OFFSET CHANGED FROM -6 TO -6
OFFSET CHANGED FROM -6 TO -6
OFFSET CHANGED FROM -6 TO -6
OFFSET CHANGED FROM -6 TO -6
OFFSET CHANGED FROM -6 TO -6
OFFSET CHANGED FROM -6 TO -6
OFFSET CHANGED FROM -6 TO -9
OFFSET CHANGED FROM -9 TO -6
OFFSET CHANGED FROM -6 TO -6
OFFSET CHANGED FROM -6 TO -6
OFFSET CHANGED FROM -6 TO -6
OFFSET CHANGED FROM -6 TO -3
OFFSET CHANGED FROM -3 TO -6
OFFSET CHANGED FROM -6 TO -6
OFFSET CHANGED FROM -6 TO -6
OFFSET CHANGED FROM -6 TO -6
OFFSET CHANGED FROM -6 TO -9
OFFSET CHANGED FROM -9 TO -12
OFFSET CHANGED FROM -12 TO -12
OFFSET CHANGED FROM -12 TO -6
OFFSET CHANGED FROM -6 TO -6
OFFSET CHANGED FROM -6 TO -9
OFFSET CHANGED FROM -9 TO -9
OFFSET CHANGED FROM -9 TO -6
OFFSET CHANGED FROM -6 TO -6
OFFSET CHANGED FROM -6 TO -6
OFFSET CHANGED FROM -6 TO -9
OFFSET CHANGED FROM -9 TO -12
OFFSET CHANGED FROM -12 TO -6
OFFSET CHANGED FROM -6 TO -6
OFFSET CHANGED FROM -6 TO -6
OFFSET CHANGED FROM -6 TO -6
OFFSET CHANGED FROM -6 TO -6
OFFSET CHANGED FROM -6 TO -6
OFFSET CHANGED FROM -6 TO -6
OFFSET CHANGED FROM -6 TO -6
OFFSET CHANGED FROM -6 TO -6
OFFSET CHANGED FROM -6 TO -6
OFFSET CHANGED FROM -6 TO -12
OFFSET CHANGED FROM -12 TO -12
OFFSET CHANGED FROM -12 TO -12
OFFSET CHANGED FROM -12 TO -9
OFFSET CHANGED FROM -9 TO -9
OFFSET CHANGED FROM -9 TO -6
OFFSET CHANGED FROM -6 TO -6
OFFSET CHANGED FROM -6 TO -9
OFFSET CHANGED FROM -9 TO -9
OFFSET CHANGED FROM -9 TO -15
OFFSET CHANGED FROM -15 TO -6
OFFSET CHANGED FROM -6 TO -15
OFFSET CHANGED FROM -15 TO -12
OFFSET CHANGED FROM -12 TO -6
OFFSET CHANGED FROM -6 TO -6
OFFSET CHANGED FROM -6 TO -9
OFFSET CHANGED FROM -9 TO -6
OFFSET CHANGED FROM -6 TO -6
OFFSET CHANGED FROM -6 TO -6
OFFSET CHANGED FROM -6 TO -6
OFFSET CHANGED FROM -6 TO -6
OFFSET CHANGED FROM -6 TO -6
OFFSET CHANGED FROM -6 TO -6
OFFSET CHANGED FROM -6 TO -6
OFFSET CHANGED FROM -6 TO -9
OFFSET CHANGED FROM -9 TO -9
OFFSET CHANGED FROM -9 TO -6
OFFSET CHANGED FROM -6 TO -6
OFFSET CHANGED FROM -6 TO -6
OFFSET CHANGED FROM -6 TO -6
OFFSET CHANGED FROM -6 TO -6
OFFSET CHANGED FROM -6 TO -6
OFFSET CHANGED FROM -6 TO -6
OFFSET CHANGED FROM -6 TO -9
OFFSET CHANGED FROM -9 TO -6
OFFSET CHANGED FROM -6 TO -6
OFFSET CHANGED FROM -6 TO -9
OFFSET CHANGED FROM -9 TO -6
OFFSET CHANGED FROM -6 TO -6
OFFSET CHANGED FROM -6 TO -6
OFFSET CHANGED FROM -6 TO -6
OFFSET CHANGED FROM -6 TO -9
OFFSET CHANGED FROM -9 TO -9
OFFSET CHANGED FROM -9 TO -6
OFFSET CHANGED FROM -6 TO -12
OFFSET CHANGED FROM -12 TO -9
OFFSET CHANGED FROM -9 TO -6
OFFSET CHANGED FROM -6 TO -6
Heartbeat CPU 0 instructions: 300000001 cycles: 573270860 heartbeat IPC: 0.453795 cumulative IPC: 0.452577 (Simulation time: 0 hr 18 min 13 sec) 
Finished CPU 0 instructions: 250000002 cycles: 552392661 cumulative IPC: 0.452577 (Simulation time: 0 hr 18 min 13 sec) 

ChampSim completed all CPUs

Region of Interest Statistics

CPU 0 cumulative IPC: 0.452577 instructions: 250000002 cycles: 552392661
L1D TOTAL     ACCESS:   90424589  HIT:   75924196  MISS:   14500393
L1D LOAD      ACCESS:   45956848  HIT:   31459788  MISS:   14497060
L1D RFO       ACCESS:   44467741  HIT:   44464408  MISS:       3333
L1D PREFETCH  ACCESS:          0  HIT:          0  MISS:          0
L1D WRITEBACK ACCESS:          0  HIT:          0  MISS:          0
L1D PREFETCH  REQUESTED:          0  ISSUED:          0  USEFUL:          0  USELESS:          0
L1D AVERAGE MISS LATENCY: 47.7436 cycles
L1I TOTAL     ACCESS:   52550247  HIT:   52550247  MISS:          0
L1I LOAD      ACCESS:   52550247  HIT:   52550247  MISS:          0
L1I RFO       ACCESS:          0  HIT:          0  MISS:          0
L1I PREFETCH  ACCESS:          0  HIT:          0  MISS:          0
L1I WRITEBACK ACCESS:          0  HIT:          0  MISS:          0
L1I PREFETCH  REQUESTED:          0  ISSUED:          0  USEFUL:          0  USELESS:          0
L1I AVERAGE MISS LATENCY: -nan cycles
L2C TOTAL     ACCESS:   26055198  HIT:   11009989  MISS:   15045209
L2C LOAD      ACCESS:   14496947  HIT:   10060113  MISS:    4436834
L2C RFO       ACCESS:       3333  HIT:       2510  MISS:        823
L2C PREFETCH  ACCESS:   11053588  HIT:     448493  MISS:   10605095
L2C WRITEBACK ACCESS:     501330  HIT:     498873  MISS:       2457
L2C PREFETCH  REQUESTED:   12891294  ISSUED:   12891294  USEFUL:    9970976  USELESS:     634224
L2C AVERAGE MISS LATENCY: 125.733 cycles
LLC TOTAL     ACCESS:   15475014  HIT:     460537  MISS:   15014477
LLC LOAD      ACCESS:    2603387  HIT:      12782  MISS:    2590605
LLC RFO       ACCESS:        790  HIT:        343  MISS:        447
LLC PREFETCH  ACCESS:   12438662  HIT:      18226  MISS:   12420436
LLC WRITEBACK ACCESS:     432175  HIT:     429186  MISS:       2989
LLC PREFETCH  REQUESTED:          0  ISSUED:          0  USEFUL:        396  USELESS:   12420830
LLC AVERAGE MISS LATENCY: 105.324 cycles
Major fault: 0 Minor fault: 24751
CPU 0 L1I next line prefetcher final stats
CPU 0 L2C best offset prefetcher final stats

DRAM Statistics
 CHANNEL 0
 RQ ROW_BUFFER_HIT:   11970769  ROW_BUFFER_MISS:    3040629
 DBUS_CONGESTED:    5515698
 WQ ROW_BUFFER_HIT:     133804  ROW_BUFFER_MISS:     288541  FULL:          0

 AVG_CONGESTED_CYCLE: 6

CPU 0 Branch Prediction Accuracy: 98.0342% MPKI: 2.3226 Average ROB Occupancy at Mispredict: 48.5658

Branch types
NOT_BRANCH: 220461838 88.1847%
BRANCH_DIRECT_JUMP: 466020 0.186408%
BRANCH_INDIRECT: 0 0%
BRANCH_CONDITIONAL: 28606418 11.4426%
BRANCH_DIRECT_CALL: 232839 0.0931356%
BRANCH_INDIRECT_CALL: 0 0%
BRANCH_RETURN: 232839 0.0931356%
BRANCH_OTHER: 0 0%

