
*** ChampSim Multicore Out-of-Order Simulator ***

Warmup Instructions: 50000000
Simulation Instructions: 250000000
Number of CPUs: 1
LLC sets: 2048
LLC ways: 16
Off-chip DRAM Size: 4096 MB Channels: 1 Width: 64-bit Data Rate: 3200 MT/s

CPU 0 runs /home/wezelis2/ECE511_Project/ChampSim/dpc3_traces/433.milc-127B.champsimtrace.xz
CPU 0 Bimodal branch predictor
CPU 0 L1I next line prefetcher
INIT BEST RECENT REQUEST TABLE MODULE
INIT DELAY QUEUE MODULE
INIT PREFETCH THROTTLE MODULE
INIT OFFSET SCORE MODULE
INIT BEST OFFSET PREFETCHER
OFFSET CHANGED FROM 1 TO 1
OFFSET CHANGED FROM 1 TO 1
OFFSET CHANGED FROM 1 TO 1
OFFSET CHANGED FROM 1 TO 1
OFFSET CHANGED FROM 1 TO 1
OFFSET CHANGED FROM 1 TO 1
OFFSET CHANGED FROM 1 TO 1
OFFSET CHANGED FROM 1 TO 1
OFFSET CHANGED FROM 1 TO 1
OFFSET CHANGED FROM 1 TO 1
OFFSET CHANGED FROM 1 TO 1
OFFSET CHANGED FROM 1 TO 1
OFFSET CHANGED FROM 1 TO 1
OFFSET CHANGED FROM 1 TO 1
OFFSET CHANGED FROM 1 TO 1
OFFSET CHANGED FROM 1 TO 1
OFFSET CHANGED FROM 1 TO 1
OFFSET CHANGED FROM 1 TO 1
OFFSET CHANGED FROM 1 TO 1
OFFSET CHANGED FROM 1 TO 1
OFFSET CHANGED FROM 1 TO 1
OFFSET CHANGED FROM 1 TO 1
OFFSET CHANGED FROM 1 TO 1
OFFSET CHANGED FROM 1 TO 1
OFFSET CHANGED FROM 1 TO 1
OFFSET CHANGED FROM 1 TO 1
OFFSET CHANGED FROM 1 TO 1
OFFSET CHANGED FROM 1 TO 1
OFFSET CHANGED FROM 1 TO 1
OFFSET CHANGED FROM 1 TO 1
OFFSET CHANGED FROM 1 TO 1
OFFSET CHANGED FROM 1 TO 1
OFFSET CHANGED FROM 1 TO 1
OFFSET CHANGED FROM 1 TO 1
OFFSET CHANGED FROM 1 TO 1
OFFSET CHANGED FROM 1 TO 1
OFFSET CHANGED FROM 1 TO 1
OFFSET CHANGED FROM 1 TO 1
OFFSET CHANGED FROM 1 TO 1
OFFSET CHANGED FROM 1 TO 1
OFFSET CHANGED FROM 1 TO 1
OFFSET CHANGED FROM 1 TO 1
OFFSET CHANGED FROM 1 TO 1
OFFSET CHANGED FROM 1 TO 1
OFFSET CHANGED FROM 1 TO 1
OFFSET CHANGED FROM 1 TO 1
OFFSET CHANGED FROM 1 TO 1
OFFSET CHANGED FROM 1 TO 1
OFFSET CHANGED FROM 1 TO 1
OFFSET CHANGED FROM 1 TO 1
OFFSET CHANGED FROM 1 TO 1
OFFSET CHANGED FROM 1 TO 1
OFFSET CHANGED FROM 1 TO 1
OFFSET CHANGED FROM 1 TO 1
OFFSET CHANGED FROM 1 TO 1
OFFSET CHANGED FROM 1 TO 1
OFFSET CHANGED FROM 1 TO 1
OFFSET CHANGED FROM 1 TO 1
OFFSET CHANGED FROM 1 TO 1
OFFSET CHANGED FROM 1 TO 1
OFFSET CHANGED FROM 1 TO 1
OFFSET CHANGED FROM 1 TO 1
OFFSET CHANGED FROM 1 TO 1
OFFSET CHANGED FROM 1 TO 1
OFFSET CHANGED FROM 1 TO 1
OFFSET CHANGED FROM 1 TO 1
OFFSET CHANGED FROM 1 TO 1
OFFSET CHANGED FROM 1 TO 1
OFFSET CHANGED FROM 1 TO 1
OFFSET CHANGED FROM 1 TO 1
OFFSET CHANGED FROM 1 TO 1
OFFSET CHANGED FROM 1 TO 1
OFFSET CHANGED FROM 1 TO 1
OFFSET CHANGED FROM 1 TO 1
OFFSET CHANGED FROM 1 TO 1
OFFSET CHANGED FROM 1 TO 1
OFFSET CHANGED FROM 1 TO 1
OFFSET CHANGED FROM 1 TO 1
OFFSET CHANGED FROM 1 TO 1
OFFSET CHANGED FROM 1 TO 1
OFFSET CHANGED FROM 1 TO 1
Heartbeat CPU 0 instructions: 10000003 cycles: 3489970 heartbeat IPC: 2.86536 cumulative IPC: 2.86536 (Simulation time: 0 hr 0 min 27 sec) 
OFFSET CHANGED FROM 1 TO 1
OFFSET CHANGED FROM 1 TO 1
OFFSET CHANGED FROM 1 TO 1
OFFSET CHANGED FROM 1 TO 1
OFFSET CHANGED FROM 1 TO 1
OFFSET CHANGED FROM 1 TO 1
OFFSET CHANGED FROM 1 TO 1
OFFSET CHANGED FROM 1 TO 1
OFFSET CHANGED FROM 1 TO 1
OFFSET CHANGED FROM 1 TO 1
OFFSET CHANGED FROM 1 TO 1
OFFSET CHANGED FROM 1 TO 1
OFFSET CHANGED FROM 1 TO 1
OFFSET CHANGED FROM 1 TO 1
OFFSET CHANGED FROM 1 TO 1
OFFSET CHANGED FROM 1 TO 1
OFFSET CHANGED FROM 1 TO 1
OFFSET CHANGED FROM 1 TO 1
OFFSET CHANGED FROM 1 TO 1
OFFSET CHANGED FROM 1 TO 1
OFFSET CHANGED FROM 1 TO 1
OFFSET CHANGED FROM 1 TO 1
OFFSET CHANGED FROM 1 TO 1
OFFSET CHANGED FROM 1 TO 1
OFFSET CHANGED FROM 1 TO 1
OFFSET CHANGED FROM 1 TO 1
OFFSET CHANGED FROM 1 TO 1
OFFSET CHANGED FROM 1 TO 1
OFFSET CHANGED FROM 1 TO 1
OFFSET CHANGED FROM 1 TO 1
OFFSET CHANGED FROM 1 TO 1
OFFSET CHANGED FROM 1 TO 1
OFFSET CHANGED FROM 1 TO 1
OFFSET CHANGED FROM 1 TO 1
OFFSET CHANGED FROM 1 TO 1
OFFSET CHANGED FROM 1 TO 1
OFFSET CHANGED FROM 1 TO 1
OFFSET CHANGED FROM 1 TO 1
OFFSET CHANGED FROM 1 TO 1
OFFSET CHANGED FROM 1 TO 1
OFFSET CHANGED FROM 1 TO 1
OFFSET CHANGED FROM 1 TO 1
OFFSET CHANGED FROM 1 TO 1
OFFSET CHANGED FROM 1 TO 1
OFFSET CHANGED FROM 1 TO 1
OFFSET CHANGED FROM 1 TO 1
OFFSET CHANGED FROM 1 TO 1
OFFSET CHANGED FROM 1 TO 1
OFFSET CHANGED FROM 1 TO 1
OFFSET CHANGED FROM 1 TO 1
OFFSET CHANGED FROM 1 TO 1
OFFSET CHANGED FROM 1 TO 1
OFFSET CHANGED FROM 1 TO 1
OFFSET CHANGED FROM 1 TO 1
OFFSET CHANGED FROM 1 TO 1
OFFSET CHANGED FROM 1 TO 1
OFFSET CHANGED FROM 1 TO 1
OFFSET CHANGED FROM 1 TO 1
OFFSET CHANGED FROM 1 TO 1
OFFSET CHANGED FROM 1 TO 1
OFFSET CHANGED FROM 1 TO 1
OFFSET CHANGED FROM 1 TO 1
OFFSET CHANGED FROM 1 TO 1
OFFSET CHANGED FROM 1 TO 1
OFFSET CHANGED FROM 1 TO 1
OFFSET CHANGED FROM 1 TO 1
OFFSET CHANGED FROM 1 TO 1
OFFSET CHANGED FROM 1 TO 1
OFFSET CHANGED FROM 1 TO 1
OFFSET CHANGED FROM 1 TO 1
OFFSET CHANGED FROM 1 TO 1
OFFSET CHANGED FROM 1 TO 1
OFFSET CHANGED FROM 1 TO 1
OFFSET CHANGED FROM 1 TO 1
OFFSET CHANGED FROM 1 TO 1
OFFSET CHANGED FROM 1 TO 1
OFFSET CHANGED FROM 1 TO 1
OFFSET CHANGED FROM 1 TO 1
Heartbeat CPU 0 instructions: 20000003 cycles: 7007812 heartbeat IPC: 2.84265 cumulative IPC: 2.85396 (Simulation time: 0 hr 0 min 53 sec) 
OFFSET CHANGED FROM 1 TO 1
OFFSET CHANGED FROM 1 TO 1
OFFSET CHANGED FROM 1 TO 1
OFFSET CHANGED FROM 1 TO 1
OFFSET CHANGED FROM 1 TO 1
OFFSET CHANGED FROM 1 TO 1
OFFSET CHANGED FROM 1 TO 1
OFFSET CHANGED FROM 1 TO 1
OFFSET CHANGED FROM 1 TO 2
OFFSET CHANGED FROM 2 TO 2
OFFSET CHANGED FROM 2 TO 2
OFFSET CHANGED FROM 2 TO 3
OFFSET CHANGED FROM 3 TO 2
OFFSET CHANGED FROM 2 TO 1
OFFSET CHANGED FROM 1 TO 1
OFFSET CHANGED FROM 1 TO 3
OFFSET CHANGED FROM 3 TO 2
OFFSET CHANGED FROM 2 TO 1
OFFSET CHANGED FROM 1 TO 1
OFFSET CHANGED FROM 1 TO 2
OFFSET CHANGED FROM 2 TO 1
OFFSET CHANGED FROM 1 TO 3
OFFSET CHANGED FROM 3 TO 4
OFFSET CHANGED FROM 4 TO 2
OFFSET CHANGED FROM 2 TO 2
OFFSET CHANGED FROM 2 TO 3
OFFSET CHANGED FROM 3 TO 2
OFFSET CHANGED FROM 2 TO 2
OFFSET CHANGED FROM 2 TO 1
OFFSET CHANGED FROM 1 TO 4
OFFSET CHANGED FROM 4 TO 2
OFFSET CHANGED FROM 2 TO 1
OFFSET CHANGED FROM 1 TO 1
OFFSET CHANGED FROM 1 TO 3
OFFSET CHANGED FROM 3 TO 1
OFFSET CHANGED FROM 1 TO 3
OFFSET CHANGED FROM 3 TO 4
OFFSET CHANGED FROM 4 TO 2
OFFSET CHANGED FROM 2 TO 1
OFFSET CHANGED FROM 1 TO 4
OFFSET CHANGED FROM 4 TO 2
OFFSET CHANGED FROM 2 TO 1
OFFSET CHANGED FROM 1 TO 2
OFFSET CHANGED FROM 2 TO 3
OFFSET CHANGED FROM 3 TO 2
OFFSET CHANGED FROM 2 TO 2
OFFSET CHANGED FROM 2 TO 4
OFFSET CHANGED FROM 4 TO 2
OFFSET CHANGED FROM 2 TO 2
OFFSET CHANGED FROM 2 TO 1
OFFSET CHANGED FROM 1 TO 1
OFFSET CHANGED FROM 1 TO 2
OFFSET CHANGED FROM 2 TO 1
OFFSET CHANGED FROM 1 TO 3
OFFSET CHANGED FROM 3 TO 4
OFFSET CHANGED FROM 4 TO 4
OFFSET CHANGED FROM 4 TO 1
OFFSET CHANGED FROM 1 TO 1
OFFSET CHANGED FROM 1 TO 1
OFFSET CHANGED FROM 1 TO 2
OFFSET CHANGED FROM 2 TO 2
OFFSET CHANGED FROM 2 TO 1
OFFSET CHANGED FROM 1 TO 4
OFFSET CHANGED FROM 4 TO 2
OFFSET CHANGED FROM 2 TO 2
OFFSET CHANGED FROM 2 TO 3
OFFSET CHANGED FROM 3 TO 3
OFFSET CHANGED FROM 3 TO 1
OFFSET CHANGED FROM 1 TO 1
OFFSET CHANGED FROM 1 TO 1
OFFSET CHANGED FROM 1 TO 2
OFFSET CHANGED FROM 2 TO 1
OFFSET CHANGED FROM 1 TO 1
OFFSET CHANGED FROM 1 TO 2
OFFSET CHANGED FROM 2 TO 2
OFFSET CHANGED FROM 2 TO 1
OFFSET CHANGED FROM 1 TO 1
OFFSET CHANGED FROM 1 TO 2
OFFSET CHANGED FROM 2 TO 1
OFFSET CHANGED FROM 1 TO 1
OFFSET CHANGED FROM 1 TO 3
OFFSET CHANGED FROM 3 TO 1
OFFSET CHANGED FROM 1 TO 1
OFFSET CHANGED FROM 1 TO 1
OFFSET CHANGED FROM 1 TO 3
OFFSET CHANGED FROM 3 TO 1
OFFSET CHANGED FROM 1 TO 1
OFFSET CHANGED FROM 1 TO 3
OFFSET CHANGED FROM 3 TO 1
OFFSET CHANGED FROM 1 TO 1
OFFSET CHANGED FROM 1 TO 1
OFFSET CHANGED FROM 1 TO 2
OFFSET CHANGED FROM 2 TO 1
OFFSET CHANGED FROM 1 TO 1
OFFSET CHANGED FROM 1 TO 3
OFFSET CHANGED FROM 3 TO 2
OFFSET CHANGED FROM 2 TO 1
OFFSET CHANGED FROM 1 TO 1
OFFSET CHANGED FROM 1 TO 2
OFFSET CHANGED FROM 2 TO 1
OFFSET CHANGED FROM 1 TO 1
OFFSET CHANGED FROM 1 TO 1
OFFSET CHANGED FROM 1 TO 1
OFFSET CHANGED FROM 1 TO 1
OFFSET CHANGED FROM 1 TO 1
OFFSET CHANGED FROM 1 TO 2
OFFSET CHANGED FROM 2 TO 1
OFFSET CHANGED FROM 1 TO 1
OFFSET CHANGED FROM 1 TO 1
OFFSET CHANGED FROM 1 TO 1
OFFSET CHANGED FROM 1 TO 1
OFFSET CHANGED FROM 1 TO 1
OFFSET CHANGED FROM 1 TO 1
OFFSET CHANGED FROM 1 TO 1
OFFSET CHANGED FROM 1 TO 1
OFFSET CHANGED FROM 1 TO 1
OFFSET CHANGED FROM 1 TO 2
OFFSET CHANGED FROM 2 TO 2
OFFSET CHANGED FROM 2 TO 1
Heartbeat CPU 0 instructions: 30000001 cycles: 11291149 heartbeat IPC: 2.33463 cumulative IPC: 2.65695 (Simulation time: 0 hr 1 min 25 sec) 
OFFSET CHANGED FROM 1 TO 1
OFFSET CHANGED FROM 1 TO 1
OFFSET CHANGED FROM 1 TO 2
OFFSET CHANGED FROM 2 TO 1
OFFSET CHANGED FROM 1 TO 1
OFFSET CHANGED FROM 1 TO 1
OFFSET CHANGED FROM 1 TO 1
OFFSET CHANGED FROM 1 TO 1
OFFSET CHANGED FROM 1 TO 1
OFFSET CHANGED FROM 1 TO 1
OFFSET CHANGED FROM 1 TO 1
OFFSET CHANGED FROM 1 TO 1
OFFSET CHANGED FROM 1 TO 1
OFFSET CHANGED FROM 1 TO 1
OFFSET CHANGED FROM 1 TO 1
OFFSET CHANGED FROM 1 TO 1
OFFSET CHANGED FROM 1 TO 3
OFFSET CHANGED FROM 3 TO 1
OFFSET CHANGED FROM 1 TO 2
OFFSET CHANGED FROM 2 TO 1
OFFSET CHANGED FROM 1 TO 2
OFFSET CHANGED FROM 2 TO 1
OFFSET CHANGED FROM 1 TO 1
OFFSET CHANGED FROM 1 TO 1
OFFSET CHANGED FROM 1 TO 2
OFFSET CHANGED FROM 2 TO 1
OFFSET CHANGED FROM 1 TO 1
OFFSET CHANGED FROM 1 TO 1
OFFSET CHANGED FROM 1 TO 1
OFFSET CHANGED FROM 1 TO 1
OFFSET CHANGED FROM 1 TO 3
Heartbeat CPU 0 instructions: 40000001 cycles: 15331448 heartbeat IPC: 2.47506 cumulative IPC: 2.60902 (Simulation time: 0 hr 1 min 55 sec) 
OFFSET CHANGED FROM 3 TO 3
OFFSET CHANGED FROM 3 TO 2
OFFSET CHANGED FROM 2 TO 1
OFFSET CHANGED FROM 1 TO 2
OFFSET CHANGED FROM 2 TO 1
OFFSET CHANGED FROM 1 TO 1
OFFSET CHANGED FROM 1 TO 2
OFFSET CHANGED FROM 2 TO 1
OFFSET CHANGED FROM 1 TO 2
OFFSET CHANGED FROM 2 TO 1
OFFSET CHANGED FROM 1 TO 1
OFFSET CHANGED FROM 1 TO 1
OFFSET CHANGED FROM 1 TO 2
OFFSET CHANGED FROM 2 TO 1
OFFSET CHANGED FROM 1 TO 2
OFFSET CHANGED FROM 2 TO 1
OFFSET CHANGED FROM 1 TO 3
OFFSET CHANGED FROM 3 TO 2
OFFSET CHANGED FROM 2 TO 1
OFFSET CHANGED FROM 1 TO 1
OFFSET CHANGED FROM 1 TO 1
OFFSET CHANGED FROM 1 TO 2
OFFSET CHANGED FROM 2 TO 1
OFFSET CHANGED FROM 1 TO 2
OFFSET CHANGED FROM 2 TO 3
OFFSET CHANGED FROM 3 TO 2
OFFSET CHANGED FROM 2 TO 1
OFFSET CHANGED FROM 1 TO 2
OFFSET CHANGED FROM 2 TO 1
OFFSET CHANGED FROM 1 TO 1
OFFSET CHANGED FROM 1 TO 1
OFFSET CHANGED FROM 1 TO 2
Heartbeat CPU 0 instructions: 50000002 cycles: 19371842 heartbeat IPC: 2.47501 cumulative IPC: 2.58107 (Simulation time: 0 hr 2 min 25 sec) 

Warmup complete CPU 0 instructions: 50000002 cycles: 19371842 (Simulation time: 0 hr 2 min 25 sec) 

OFFSET CHANGED FROM 2 TO 1
OFFSET CHANGED FROM 1 TO 1
OFFSET CHANGED FROM 1 TO 1
OFFSET CHANGED FROM 1 TO 1
OFFSET CHANGED FROM 1 TO 1
OFFSET CHANGED FROM 1 TO 3
OFFSET CHANGED FROM 3 TO 1
OFFSET CHANGED FROM 1 TO 1
OFFSET CHANGED FROM 1 TO 2
OFFSET CHANGED FROM 2 TO 2
OFFSET CHANGED FROM 2 TO 1
OFFSET CHANGED FROM 1 TO 1
OFFSET CHANGED FROM 1 TO 1
OFFSET CHANGED FROM 1 TO 2
OFFSET CHANGED FROM 2 TO 1
OFFSET CHANGED FROM 1 TO 2
OFFSET CHANGED FROM 2 TO 2
OFFSET CHANGED FROM 2 TO 2
OFFSET CHANGED FROM 2 TO 1
OFFSET CHANGED FROM 1 TO 1
OFFSET CHANGED FROM 1 TO 2
OFFSET CHANGED FROM 2 TO 1
OFFSET CHANGED FROM 1 TO 2
OFFSET CHANGED FROM 2 TO 1
OFFSET CHANGED FROM 1 TO 3
OFFSET CHANGED FROM 3 TO 4
OFFSET CHANGED FROM 4 TO 1
OFFSET CHANGED FROM 1 TO 3
OFFSET CHANGED FROM 3 TO 2
OFFSET CHANGED FROM 2 TO 1
OFFSET CHANGED FROM 1 TO 2
OFFSET CHANGED FROM 2 TO 2
Heartbeat CPU 0 instructions: 60000001 cycles: 33103725 heartbeat IPC: 0.728232 cumulative IPC: 0.728232 (Simulation time: 0 hr 2 min 48 sec) 
OFFSET CHANGED FROM 2 TO 1
OFFSET CHANGED FROM 1 TO 2
OFFSET CHANGED FROM 2 TO 4
OFFSET CHANGED FROM 4 TO 1
OFFSET CHANGED FROM 1 TO 1
OFFSET CHANGED FROM 1 TO 1
OFFSET CHANGED FROM 1 TO 2
OFFSET CHANGED FROM 2 TO 1
OFFSET CHANGED FROM 1 TO 2
OFFSET CHANGED FROM 2 TO 1
OFFSET CHANGED FROM 1 TO 2
OFFSET CHANGED FROM 2 TO 3
OFFSET CHANGED FROM 3 TO 1
OFFSET CHANGED FROM 1 TO 1
OFFSET CHANGED FROM 1 TO 1
OFFSET CHANGED FROM 1 TO 2
OFFSET CHANGED FROM 2 TO 3
OFFSET CHANGED FROM 3 TO 1
OFFSET CHANGED FROM 1 TO 2
OFFSET CHANGED FROM 2 TO 1
OFFSET CHANGED FROM 1 TO 2
OFFSET CHANGED FROM 2 TO 1
OFFSET CHANGED FROM 1 TO 1
OFFSET CHANGED FROM 1 TO 1
OFFSET CHANGED FROM 1 TO 1
OFFSET CHANGED FROM 1 TO 4
OFFSET CHANGED FROM 4 TO 1
OFFSET CHANGED FROM 1 TO 1
OFFSET CHANGED FROM 1 TO 1
OFFSET CHANGED FROM 1 TO 4
OFFSET CHANGED FROM 4 TO 1
Heartbeat CPU 0 instructions: 70000000 cycles: 46777457 heartbeat IPC: 0.731329 cumulative IPC: 0.729777 (Simulation time: 0 hr 3 min 13 sec) 
OFFSET CHANGED FROM 1 TO 1
OFFSET CHANGED FROM 1 TO 1
OFFSET CHANGED FROM 1 TO 3
OFFSET CHANGED FROM 3 TO 3
OFFSET CHANGED FROM 3 TO 1
OFFSET CHANGED FROM 1 TO 2
OFFSET CHANGED FROM 2 TO 1
OFFSET CHANGED FROM 1 TO 2
OFFSET CHANGED FROM 2 TO 1
OFFSET CHANGED FROM 1 TO 2
OFFSET CHANGED FROM 2 TO 1
OFFSET CHANGED FROM 1 TO 2
OFFSET CHANGED FROM 2 TO 1
OFFSET CHANGED FROM 1 TO 1
OFFSET CHANGED FROM 1 TO 1
OFFSET CHANGED FROM 1 TO 1
OFFSET CHANGED FROM 1 TO 2
OFFSET CHANGED FROM 2 TO 1
OFFSET CHANGED FROM 1 TO 2
OFFSET CHANGED FROM 2 TO 1
OFFSET CHANGED FROM 1 TO 1
OFFSET CHANGED FROM 1 TO 1
OFFSET CHANGED FROM 1 TO 1
OFFSET CHANGED FROM 1 TO 2
OFFSET CHANGED FROM 2 TO 2
OFFSET CHANGED FROM 2 TO 2
OFFSET CHANGED FROM 2 TO 3
OFFSET CHANGED FROM 3 TO 1
OFFSET CHANGED FROM 1 TO 2
OFFSET CHANGED FROM 2 TO 1
OFFSET CHANGED FROM 1 TO 2
Heartbeat CPU 0 instructions: 80000001 cycles: 60442403 heartbeat IPC: 0.7318 cumulative IPC: 0.73045 (Simulation time: 0 hr 3 min 38 sec) 
OFFSET CHANGED FROM 2 TO 1
OFFSET CHANGED FROM 1 TO 2
OFFSET CHANGED FROM 2 TO 1
OFFSET CHANGED FROM 1 TO 2
OFFSET CHANGED FROM 2 TO 2
OFFSET CHANGED FROM 2 TO 1
OFFSET CHANGED FROM 1 TO 1
OFFSET CHANGED FROM 1 TO 1
OFFSET CHANGED FROM 1 TO 3
OFFSET CHANGED FROM 3 TO 3
OFFSET CHANGED FROM 3 TO 3
OFFSET CHANGED FROM 3 TO 2
OFFSET CHANGED FROM 2 TO 1
OFFSET CHANGED FROM 1 TO 3
OFFSET CHANGED FROM 3 TO 1
OFFSET CHANGED FROM 1 TO 2
OFFSET CHANGED FROM 2 TO 2
OFFSET CHANGED FROM 2 TO 1
OFFSET CHANGED FROM 1 TO 1
OFFSET CHANGED FROM 1 TO 2
OFFSET CHANGED FROM 2 TO 2
OFFSET CHANGED FROM 2 TO 1
OFFSET CHANGED FROM 1 TO 3
OFFSET CHANGED FROM 3 TO 1
OFFSET CHANGED FROM 1 TO 2
OFFSET CHANGED FROM 2 TO 1
OFFSET CHANGED FROM 1 TO 2
OFFSET CHANGED FROM 2 TO 2
OFFSET CHANGED FROM 2 TO 2
OFFSET CHANGED FROM 2 TO 1
OFFSET CHANGED FROM 1 TO 1
OFFSET CHANGED FROM 1 TO 1
Heartbeat CPU 0 instructions: 90000003 cycles: 74117546 heartbeat IPC: 0.731254 cumulative IPC: 0.730651 (Simulation time: 0 hr 4 min 3 sec) 
OFFSET CHANGED FROM 1 TO 1
OFFSET CHANGED FROM 1 TO 2
OFFSET CHANGED FROM 2 TO 1
OFFSET CHANGED FROM 1 TO 2
OFFSET CHANGED FROM 2 TO 3
OFFSET CHANGED FROM 3 TO 3
OFFSET CHANGED FROM 3 TO 3
OFFSET CHANGED FROM 3 TO 1
OFFSET CHANGED FROM 1 TO 4
OFFSET CHANGED FROM 4 TO 2
OFFSET CHANGED FROM 2 TO 2
OFFSET CHANGED FROM 2 TO 4
OFFSET CHANGED FROM 4 TO 2
OFFSET CHANGED FROM 2 TO 4
OFFSET CHANGED FROM 4 TO 3
OFFSET CHANGED FROM 3 TO 4
OFFSET CHANGED FROM 4 TO 5
OFFSET CHANGED FROM 5 TO 3
OFFSET CHANGED FROM 3 TO 3
OFFSET CHANGED FROM 3 TO 3
OFFSET CHANGED FROM 3 TO 3
OFFSET CHANGED FROM 3 TO 3
OFFSET CHANGED FROM 3 TO 3
OFFSET CHANGED FROM 3 TO 3
OFFSET CHANGED FROM 3 TO 2
OFFSET CHANGED FROM 2 TO 2
OFFSET CHANGED FROM 2 TO 2
OFFSET CHANGED FROM 2 TO 3
OFFSET CHANGED FROM 3 TO 2
OFFSET CHANGED FROM 2 TO 2
OFFSET CHANGED FROM 2 TO 3
OFFSET CHANGED FROM 3 TO 3
OFFSET CHANGED FROM 3 TO 3
OFFSET CHANGED FROM 3 TO 3
OFFSET CHANGED FROM 3 TO 2
OFFSET CHANGED FROM 2 TO 3
OFFSET CHANGED FROM 3 TO 2
OFFSET CHANGED FROM 2 TO 3
OFFSET CHANGED FROM 3 TO 2
OFFSET CHANGED FROM 2 TO 3
OFFSET CHANGED FROM 3 TO 2
OFFSET CHANGED FROM 2 TO 3
OFFSET CHANGED FROM 3 TO 2
OFFSET CHANGED FROM 2 TO 3
OFFSET CHANGED FROM 3 TO 2
OFFSET CHANGED FROM 2 TO 3
OFFSET CHANGED FROM 3 TO 2
OFFSET CHANGED FROM 2 TO 2
OFFSET CHANGED FROM 2 TO 2
OFFSET CHANGED FROM 2 TO 3
OFFSET CHANGED FROM 3 TO 2
OFFSET CHANGED FROM 2 TO 2
OFFSET CHANGED FROM 2 TO 2
OFFSET CHANGED FROM 2 TO 2
OFFSET CHANGED FROM 2 TO 2
OFFSET CHANGED FROM 2 TO 2
OFFSET CHANGED FROM 2 TO 3
OFFSET CHANGED FROM 3 TO 2
OFFSET CHANGED FROM 2 TO 2
OFFSET CHANGED FROM 2 TO 2
OFFSET CHANGED FROM 2 TO 2
OFFSET CHANGED FROM 2 TO 2
OFFSET CHANGED FROM 2 TO 2
OFFSET CHANGED FROM 2 TO 2
OFFSET CHANGED FROM 2 TO 2
OFFSET CHANGED FROM 2 TO 2
OFFSET CHANGED FROM 2 TO 2
OFFSET CHANGED FROM 2 TO 2
OFFSET CHANGED FROM 2 TO 2
OFFSET CHANGED FROM 2 TO 2
OFFSET CHANGED FROM 2 TO 3
OFFSET CHANGED FROM 3 TO 3
OFFSET CHANGED FROM 3 TO 2
OFFSET CHANGED FROM 2 TO 2
OFFSET CHANGED FROM 2 TO 2
OFFSET CHANGED FROM 2 TO 2
OFFSET CHANGED FROM 2 TO 2
OFFSET CHANGED FROM 2 TO 2
OFFSET CHANGED FROM 2 TO 2
OFFSET CHANGED FROM 2 TO 2
OFFSET CHANGED FROM 2 TO 2
OFFSET CHANGED FROM 2 TO 2
OFFSET CHANGED FROM 2 TO 2
OFFSET CHANGED FROM 2 TO 4
OFFSET CHANGED FROM 4 TO 5
OFFSET CHANGED FROM 5 TO 6
OFFSET CHANGED FROM 6 TO 7
OFFSET CHANGED FROM 7 TO 6
OFFSET CHANGED FROM 6 TO 6
OFFSET CHANGED FROM 6 TO 7
OFFSET CHANGED FROM 7 TO 6
OFFSET CHANGED FROM 6 TO 7
OFFSET CHANGED FROM 7 TO 8
OFFSET CHANGED FROM 8 TO 9
OFFSET CHANGED FROM 9 TO 9
OFFSET CHANGED FROM 9 TO 10
OFFSET CHANGED FROM 10 TO 11
OFFSET CHANGED FROM 11 TO 10
OFFSET CHANGED FROM 10 TO 4
OFFSET CHANGED FROM 4 TO 5
OFFSET CHANGED FROM 5 TO 7
OFFSET CHANGED FROM 7 TO 8
OFFSET CHANGED FROM 8 TO 8
OFFSET CHANGED FROM 8 TO 9
OFFSET CHANGED FROM 9 TO 10
OFFSET CHANGED FROM 10 TO 10
OFFSET CHANGED FROM 10 TO 11
OFFSET CHANGED FROM 11 TO 12
OFFSET CHANGED FROM 12 TO 12
OFFSET CHANGED FROM 12 TO 11
OFFSET CHANGED FROM 11 TO 12
OFFSET CHANGED FROM 12 TO 13
OFFSET CHANGED FROM 13 TO 13
OFFSET CHANGED FROM 13 TO 6
OFFSET CHANGED FROM 6 TO 2
OFFSET CHANGED FROM 2 TO 2
OFFSET CHANGED FROM 2 TO 2
OFFSET CHANGED FROM 2 TO 2
OFFSET CHANGED FROM 2 TO 3
OFFSET CHANGED FROM 3 TO 4
OFFSET CHANGED FROM 4 TO 5
OFFSET CHANGED FROM 5 TO 3
OFFSET CHANGED FROM 3 TO 2
OFFSET CHANGED FROM 2 TO 2
OFFSET CHANGED FROM 2 TO 2
OFFSET CHANGED FROM 2 TO 2
OFFSET CHANGED FROM 2 TO 2
OFFSET CHANGED FROM 2 TO 2
OFFSET CHANGED FROM 2 TO 2
OFFSET CHANGED FROM 2 TO 2
OFFSET CHANGED FROM 2 TO 3
OFFSET CHANGED FROM 3 TO 3
OFFSET CHANGED FROM 3 TO 4
OFFSET CHANGED FROM 4 TO 3
OFFSET CHANGED FROM 3 TO 4
OFFSET CHANGED FROM 4 TO 3
OFFSET CHANGED FROM 3 TO 4
OFFSET CHANGED FROM 4 TO 4
OFFSET CHANGED FROM 4 TO 4
OFFSET CHANGED FROM 4 TO 3
OFFSET CHANGED FROM 3 TO 4
OFFSET CHANGED FROM 4 TO 5
Heartbeat CPU 0 instructions: 100000003 cycles: 92048533 heartbeat IPC: 0.557694 cumulative IPC: 0.687979 (Simulation time: 0 hr 4 min 32 sec) 
OFFSET CHANGED FROM 5 TO 5
OFFSET CHANGED FROM 5 TO 6
OFFSET CHANGED FROM 6 TO 6
OFFSET CHANGED FROM 6 TO 6
OFFSET CHANGED FROM 6 TO 4
OFFSET CHANGED FROM 4 TO 4
OFFSET CHANGED FROM 4 TO 5
OFFSET CHANGED FROM 5 TO 3
OFFSET CHANGED FROM 3 TO 4
OFFSET CHANGED FROM 4 TO 4
OFFSET CHANGED FROM 4 TO 4
OFFSET CHANGED FROM 4 TO 4
OFFSET CHANGED FROM 4 TO 5
OFFSET CHANGED FROM 5 TO 2
OFFSET CHANGED FROM 2 TO 3
OFFSET CHANGED FROM 3 TO 3
OFFSET CHANGED FROM 3 TO 4
OFFSET CHANGED FROM 4 TO 4
OFFSET CHANGED FROM 4 TO 3
OFFSET CHANGED FROM 3 TO 4
OFFSET CHANGED FROM 4 TO 5
OFFSET CHANGED FROM 5 TO 3
OFFSET CHANGED FROM 3 TO 3
OFFSET CHANGED FROM 3 TO 4
OFFSET CHANGED FROM 4 TO 3
OFFSET CHANGED FROM 3 TO 3
OFFSET CHANGED FROM 3 TO 3
OFFSET CHANGED FROM 3 TO 3
OFFSET CHANGED FROM 3 TO 3
OFFSET CHANGED FROM 3 TO 3
OFFSET CHANGED FROM 3 TO 3
OFFSET CHANGED FROM 3 TO 32
OFFSET CHANGED FROM 32 TO 32
OFFSET CHANGED FROM 32 TO 32
OFFSET CHANGED FROM 32 TO 32
OFFSET CHANGED FROM 32 TO 32
OFFSET CHANGED FROM 32 TO 32
OFFSET CHANGED FROM 32 TO 32
OFFSET CHANGED FROM 32 TO 32
OFFSET CHANGED FROM 32 TO 32
OFFSET CHANGED FROM 32 TO 32
OFFSET CHANGED FROM 32 TO 32
OFFSET CHANGED FROM 32 TO 32
OFFSET CHANGED FROM 32 TO 32
OFFSET CHANGED FROM 32 TO 32
OFFSET CHANGED FROM 32 TO 32
OFFSET CHANGED FROM 32 TO 32
OFFSET CHANGED FROM 32 TO 32
OFFSET CHANGED FROM 32 TO 32
OFFSET CHANGED FROM 32 TO 32
OFFSET CHANGED FROM 32 TO 32
OFFSET CHANGED FROM 32 TO 32
OFFSET CHANGED FROM 32 TO 32
OFFSET CHANGED FROM 32 TO 32
OFFSET CHANGED FROM 32 TO 32
OFFSET CHANGED FROM 32 TO 32
OFFSET CHANGED FROM 32 TO 32
OFFSET CHANGED FROM 32 TO 32
OFFSET CHANGED FROM 32 TO 32
OFFSET CHANGED FROM 32 TO 32
OFFSET CHANGED FROM 32 TO 32
OFFSET CHANGED FROM 32 TO 32
OFFSET CHANGED FROM 32 TO 32
OFFSET CHANGED FROM 32 TO 32
OFFSET CHANGED FROM 32 TO 32
OFFSET CHANGED FROM 32 TO 32
OFFSET CHANGED FROM 32 TO 32
OFFSET CHANGED FROM 32 TO 32
OFFSET CHANGED FROM 32 TO 32
OFFSET CHANGED FROM 32 TO 32
OFFSET CHANGED FROM 32 TO 32
OFFSET CHANGED FROM 32 TO 32
OFFSET CHANGED FROM 32 TO 32
OFFSET CHANGED FROM 32 TO 32
OFFSET CHANGED FROM 32 TO 32
OFFSET CHANGED FROM 32 TO 32
OFFSET CHANGED FROM 32 TO 32
OFFSET CHANGED FROM 32 TO 32
OFFSET CHANGED FROM 32 TO 32
OFFSET CHANGED FROM 32 TO 32
OFFSET CHANGED FROM 32 TO 32
OFFSET CHANGED FROM 32 TO 32
OFFSET CHANGED FROM 32 TO 32
OFFSET CHANGED FROM 32 TO 32
OFFSET CHANGED FROM 32 TO 32
OFFSET CHANGED FROM 32 TO 32
OFFSET CHANGED FROM 32 TO 32
OFFSET CHANGED FROM 32 TO 32
OFFSET CHANGED FROM 32 TO 32
OFFSET CHANGED FROM 32 TO 32
OFFSET CHANGED FROM 32 TO 32
Heartbeat CPU 0 instructions: 110000000 cycles: 110936141 heartbeat IPC: 0.529447 cumulative IPC: 0.655277 (Simulation time: 0 hr 5 min 7 sec) 
OFFSET CHANGED FROM 32 TO 32
OFFSET CHANGED FROM 32 TO 32
OFFSET CHANGED FROM 32 TO 32
OFFSET CHANGED FROM 32 TO 32
OFFSET CHANGED FROM 32 TO 32
OFFSET CHANGED FROM 32 TO 32
OFFSET CHANGED FROM 32 TO 32
OFFSET CHANGED FROM 32 TO 32
OFFSET CHANGED FROM 32 TO 32
OFFSET CHANGED FROM 32 TO 32
OFFSET CHANGED FROM 32 TO 32
OFFSET CHANGED FROM 32 TO 32
OFFSET CHANGED FROM 32 TO 32
OFFSET CHANGED FROM 32 TO 32
OFFSET CHANGED FROM 32 TO 32
OFFSET CHANGED FROM 32 TO 32
OFFSET CHANGED FROM 32 TO 32
OFFSET CHANGED FROM 32 TO 32
OFFSET CHANGED FROM 32 TO 32
OFFSET CHANGED FROM 32 TO 32
OFFSET CHANGED FROM 32 TO 32
OFFSET CHANGED FROM 32 TO 32
OFFSET CHANGED FROM 32 TO 32
OFFSET CHANGED FROM 32 TO 32
OFFSET CHANGED FROM 32 TO 32
OFFSET CHANGED FROM 32 TO 32
OFFSET CHANGED FROM 32 TO 32
OFFSET CHANGED FROM 32 TO 32
OFFSET CHANGED FROM 32 TO 32
OFFSET CHANGED FROM 32 TO 32
OFFSET CHANGED FROM 32 TO 32
OFFSET CHANGED FROM 32 TO 32
OFFSET CHANGED FROM 32 TO 32
OFFSET CHANGED FROM 32 TO 32
OFFSET CHANGED FROM 32 TO 32
OFFSET CHANGED FROM 32 TO 32
OFFSET CHANGED FROM 32 TO 32
OFFSET CHANGED FROM 32 TO 32
OFFSET CHANGED FROM 32 TO 32
OFFSET CHANGED FROM 32 TO 32
OFFSET CHANGED FROM 32 TO 32
OFFSET CHANGED FROM 32 TO 32
OFFSET CHANGED FROM 32 TO 32
OFFSET CHANGED FROM 32 TO 32
OFFSET CHANGED FROM 32 TO 32
OFFSET CHANGED FROM 32 TO 32
OFFSET CHANGED FROM 32 TO 32
OFFSET CHANGED FROM 32 TO 32
OFFSET CHANGED FROM 32 TO 32
OFFSET CHANGED FROM 32 TO 32
OFFSET CHANGED FROM 32 TO 32
OFFSET CHANGED FROM 32 TO 32
OFFSET CHANGED FROM 32 TO 32
OFFSET CHANGED FROM 32 TO 32
OFFSET CHANGED FROM 32 TO 32
OFFSET CHANGED FROM 32 TO 32
OFFSET CHANGED FROM 32 TO 32
OFFSET CHANGED FROM 32 TO 32
OFFSET CHANGED FROM 32 TO 32
OFFSET CHANGED FROM 32 TO 32
OFFSET CHANGED FROM 32 TO 32
OFFSET CHANGED FROM 32 TO 32
OFFSET CHANGED FROM 32 TO 32
OFFSET CHANGED FROM 32 TO 32
OFFSET CHANGED FROM 32 TO 32
OFFSET CHANGED FROM 32 TO 32
OFFSET CHANGED FROM 32 TO 32
OFFSET CHANGED FROM 32 TO 32
OFFSET CHANGED FROM 32 TO 32
OFFSET CHANGED FROM 32 TO 32
OFFSET CHANGED FROM 32 TO 32
OFFSET CHANGED FROM 32 TO 32
OFFSET CHANGED FROM 32 TO 32
OFFSET CHANGED FROM 32 TO 32
OFFSET CHANGED FROM 32 TO 32
OFFSET CHANGED FROM 32 TO 32
OFFSET CHANGED FROM 32 TO 32
OFFSET CHANGED FROM 32 TO 32
OFFSET CHANGED FROM 32 TO 32
OFFSET CHANGED FROM 32 TO 32
OFFSET CHANGED FROM 32 TO 32
OFFSET CHANGED FROM 32 TO 32
OFFSET CHANGED FROM 32 TO 32
OFFSET CHANGED FROM 32 TO 32
Heartbeat CPU 0 instructions: 120000000 cycles: 131956567 heartbeat IPC: 0.475728 cumulative IPC: 0.621754 (Simulation time: 0 hr 5 min 41 sec) 
OFFSET CHANGED FROM 32 TO 32
OFFSET CHANGED FROM 32 TO 32
OFFSET CHANGED FROM 32 TO 32
OFFSET CHANGED FROM 32 TO 32
OFFSET CHANGED FROM 32 TO 32
OFFSET CHANGED FROM 32 TO 32
OFFSET CHANGED FROM 32 TO 32
OFFSET CHANGED FROM 32 TO 32
OFFSET CHANGED FROM 32 TO 32
OFFSET CHANGED FROM 32 TO 32
OFFSET CHANGED FROM 32 TO 32
OFFSET CHANGED FROM 32 TO 32
OFFSET CHANGED FROM 32 TO 32
OFFSET CHANGED FROM 32 TO 32
OFFSET CHANGED FROM 32 TO 32
OFFSET CHANGED FROM 32 TO 32
OFFSET CHANGED FROM 32 TO 32
OFFSET CHANGED FROM 32 TO 32
OFFSET CHANGED FROM 32 TO 32
OFFSET CHANGED FROM 32 TO 32
OFFSET CHANGED FROM 32 TO 32
OFFSET CHANGED FROM 32 TO 32
OFFSET CHANGED FROM 32 TO 32
OFFSET CHANGED FROM 32 TO 32
OFFSET CHANGED FROM 32 TO 32
OFFSET CHANGED FROM 32 TO 32
OFFSET CHANGED FROM 32 TO 32
OFFSET CHANGED FROM 32 TO 32
OFFSET CHANGED FROM 32 TO 32
OFFSET CHANGED FROM 32 TO 32
OFFSET CHANGED FROM 32 TO 32
OFFSET CHANGED FROM 32 TO 32
OFFSET CHANGED FROM 32 TO 32
OFFSET CHANGED FROM 32 TO 32
OFFSET CHANGED FROM 32 TO 32
OFFSET CHANGED FROM 32 TO 32
OFFSET CHANGED FROM 32 TO 32
OFFSET CHANGED FROM 32 TO 32
OFFSET CHANGED FROM 32 TO 32
OFFSET CHANGED FROM 32 TO 32
OFFSET CHANGED FROM 32 TO 32
OFFSET CHANGED FROM 32 TO 32
OFFSET CHANGED FROM 32 TO 32
OFFSET CHANGED FROM 32 TO 32
OFFSET CHANGED FROM 32 TO 32
OFFSET CHANGED FROM 32 TO 32
OFFSET CHANGED FROM 32 TO 32
OFFSET CHANGED FROM 32 TO 32
OFFSET CHANGED FROM 32 TO 32
OFFSET CHANGED FROM 32 TO 32
OFFSET CHANGED FROM 32 TO 32
OFFSET CHANGED FROM 32 TO 32
OFFSET CHANGED FROM 32 TO 32
OFFSET CHANGED FROM 32 TO 32
OFFSET CHANGED FROM 32 TO 32
OFFSET CHANGED FROM 32 TO 32
OFFSET CHANGED FROM 32 TO 32
OFFSET CHANGED FROM 32 TO 32
OFFSET CHANGED FROM 32 TO 1
OFFSET CHANGED FROM 1 TO 2
OFFSET CHANGED FROM 2 TO 2
OFFSET CHANGED FROM 2 TO 1
OFFSET CHANGED FROM 1 TO 1
OFFSET CHANGED FROM 1 TO 2
OFFSET CHANGED FROM 2 TO 1
OFFSET CHANGED FROM 1 TO 32
OFFSET CHANGED FROM 32 TO 32
OFFSET CHANGED FROM 32 TO 32
OFFSET CHANGED FROM 32 TO 32
OFFSET CHANGED FROM 32 TO 32
OFFSET CHANGED FROM 32 TO 32
OFFSET CHANGED FROM 32 TO 32
OFFSET CHANGED FROM 32 TO 32
OFFSET CHANGED FROM 32 TO 32
OFFSET CHANGED FROM 32 TO 32
Heartbeat CPU 0 instructions: 130000001 cycles: 151882450 heartbeat IPC: 0.50186 cumulative IPC: 0.603725 (Simulation time: 0 hr 6 min 18 sec) 
OFFSET CHANGED FROM 32 TO 32
OFFSET CHANGED FROM 32 TO 32
OFFSET CHANGED FROM 32 TO 32
OFFSET CHANGED FROM 32 TO 32
OFFSET CHANGED FROM 32 TO 32
OFFSET CHANGED FROM 32 TO 32
OFFSET CHANGED FROM 32 TO 32
OFFSET CHANGED FROM 32 TO 32
OFFSET CHANGED FROM 32 TO 32
OFFSET CHANGED FROM 32 TO 32
OFFSET CHANGED FROM 32 TO 32
OFFSET CHANGED FROM 32 TO 32
OFFSET CHANGED FROM 32 TO 32
OFFSET CHANGED FROM 32 TO 32
OFFSET CHANGED FROM 32 TO 32
OFFSET CHANGED FROM 32 TO 32
OFFSET CHANGED FROM 32 TO 32
OFFSET CHANGED FROM 32 TO 32
OFFSET CHANGED FROM 32 TO 32
OFFSET CHANGED FROM 32 TO 32
OFFSET CHANGED FROM 32 TO 32
OFFSET CHANGED FROM 32 TO 32
OFFSET CHANGED FROM 32 TO 32
OFFSET CHANGED FROM 32 TO 32
OFFSET CHANGED FROM 32 TO 32
OFFSET CHANGED FROM 32 TO 32
OFFSET CHANGED FROM 32 TO 32
OFFSET CHANGED FROM 32 TO 32
OFFSET CHANGED FROM 32 TO 32
OFFSET CHANGED FROM 32 TO 32
OFFSET CHANGED FROM 32 TO 32
OFFSET CHANGED FROM 32 TO 32
OFFSET CHANGED FROM 32 TO 32
OFFSET CHANGED FROM 32 TO 32
OFFSET CHANGED FROM 32 TO 32
OFFSET CHANGED FROM 32 TO 32
OFFSET CHANGED FROM 32 TO 32
OFFSET CHANGED FROM 32 TO 32
OFFSET CHANGED FROM 32 TO 32
OFFSET CHANGED FROM 32 TO 32
OFFSET CHANGED FROM 32 TO 32
OFFSET CHANGED FROM 32 TO 32
OFFSET CHANGED FROM 32 TO 32
OFFSET CHANGED FROM 32 TO 32
OFFSET CHANGED FROM 32 TO 32
OFFSET CHANGED FROM 32 TO 32
OFFSET CHANGED FROM 32 TO 32
OFFSET CHANGED FROM 32 TO 32
OFFSET CHANGED FROM 32 TO 32
OFFSET CHANGED FROM 32 TO 32
OFFSET CHANGED FROM 32 TO 32
OFFSET CHANGED FROM 32 TO 32
OFFSET CHANGED FROM 32 TO 32
OFFSET CHANGED FROM 32 TO 32
OFFSET CHANGED FROM 32 TO 32
OFFSET CHANGED FROM 32 TO 32
OFFSET CHANGED FROM 32 TO 32
OFFSET CHANGED FROM 32 TO 32
OFFSET CHANGED FROM 32 TO 32
OFFSET CHANGED FROM 32 TO 32
OFFSET CHANGED FROM 32 TO 32
OFFSET CHANGED FROM 32 TO 32
OFFSET CHANGED FROM 32 TO 32
OFFSET CHANGED FROM 32 TO 32
OFFSET CHANGED FROM 32 TO 32
OFFSET CHANGED FROM 32 TO 32
OFFSET CHANGED FROM 32 TO 32
OFFSET CHANGED FROM 32 TO 32
OFFSET CHANGED FROM 32 TO 32
OFFSET CHANGED FROM 32 TO 32
OFFSET CHANGED FROM 32 TO 32
OFFSET CHANGED FROM 32 TO 32
OFFSET CHANGED FROM 32 TO 32
OFFSET CHANGED FROM 32 TO 32
OFFSET CHANGED FROM 32 TO 32
OFFSET CHANGED FROM 32 TO 32
OFFSET CHANGED FROM 32 TO 32
OFFSET CHANGED FROM 32 TO 32
OFFSET CHANGED FROM 32 TO 32
OFFSET CHANGED FROM 32 TO 32
OFFSET CHANGED FROM 32 TO 32
OFFSET CHANGED FROM 32 TO 32
OFFSET CHANGED FROM 32 TO 32
Heartbeat CPU 0 instructions: 140000003 cycles: 173442583 heartbeat IPC: 0.463819 cumulative IPC: 0.584147 (Simulation time: 0 hr 6 min 54 sec) 
OFFSET CHANGED FROM 32 TO 32
OFFSET CHANGED FROM 32 TO 32
OFFSET CHANGED FROM 32 TO 32
OFFSET CHANGED FROM 32 TO 32
OFFSET CHANGED FROM 32 TO 32
OFFSET CHANGED FROM 32 TO 32
OFFSET CHANGED FROM 32 TO 32
OFFSET CHANGED FROM 32 TO 32
OFFSET CHANGED FROM 32 TO 32
OFFSET CHANGED FROM 32 TO 32
OFFSET CHANGED FROM 32 TO 32
OFFSET CHANGED FROM 32 TO 32
OFFSET CHANGED FROM 32 TO 32
OFFSET CHANGED FROM 32 TO 32
OFFSET CHANGED FROM 32 TO 32
OFFSET CHANGED FROM 32 TO 32
OFFSET CHANGED FROM 32 TO 32
OFFSET CHANGED FROM 32 TO 32
OFFSET CHANGED FROM 32 TO 32
OFFSET CHANGED FROM 32 TO 32
OFFSET CHANGED FROM 32 TO 32
OFFSET CHANGED FROM 32 TO 32
OFFSET CHANGED FROM 32 TO 32
OFFSET CHANGED FROM 32 TO 32
OFFSET CHANGED FROM 32 TO 32
OFFSET CHANGED FROM 32 TO 32
OFFSET CHANGED FROM 32 TO 32
OFFSET CHANGED FROM 32 TO 32
OFFSET CHANGED FROM 32 TO 32
OFFSET CHANGED FROM 32 TO 32
OFFSET CHANGED FROM 32 TO 32
OFFSET CHANGED FROM 32 TO 32
OFFSET CHANGED FROM 32 TO 32
OFFSET CHANGED FROM 32 TO 32
OFFSET CHANGED FROM 32 TO 32
OFFSET CHANGED FROM 32 TO 32
OFFSET CHANGED FROM 32 TO 32
OFFSET CHANGED FROM 32 TO 32
OFFSET CHANGED FROM 32 TO 32
OFFSET CHANGED FROM 32 TO 32
OFFSET CHANGED FROM 32 TO 32
OFFSET CHANGED FROM 32 TO 32
OFFSET CHANGED FROM 32 TO 32
OFFSET CHANGED FROM 32 TO 32
OFFSET CHANGED FROM 32 TO 32
OFFSET CHANGED FROM 32 TO 32
OFFSET CHANGED FROM 32 TO 32
OFFSET CHANGED FROM 32 TO 32
OFFSET CHANGED FROM 32 TO 32
OFFSET CHANGED FROM 32 TO 32
OFFSET CHANGED FROM 32 TO 32
OFFSET CHANGED FROM 32 TO 32
OFFSET CHANGED FROM 32 TO 32
OFFSET CHANGED FROM 32 TO 32
OFFSET CHANGED FROM 32 TO 32
OFFSET CHANGED FROM 32 TO 32
OFFSET CHANGED FROM 32 TO 32
OFFSET CHANGED FROM 32 TO 32
OFFSET CHANGED FROM 32 TO 32
OFFSET CHANGED FROM 32 TO 32
OFFSET CHANGED FROM 32 TO 32
OFFSET CHANGED FROM 32 TO 32
OFFSET CHANGED FROM 32 TO 32
OFFSET CHANGED FROM 32 TO 32
OFFSET CHANGED FROM 32 TO 32
OFFSET CHANGED FROM 32 TO 32
OFFSET CHANGED FROM 32 TO 32
OFFSET CHANGED FROM 32 TO 32
OFFSET CHANGED FROM 32 TO 32
OFFSET CHANGED FROM 32 TO 32
OFFSET CHANGED FROM 32 TO 32
OFFSET CHANGED FROM 32 TO 32
OFFSET CHANGED FROM 32 TO 32
OFFSET CHANGED FROM 32 TO 32
OFFSET CHANGED FROM 32 TO 32
OFFSET CHANGED FROM 32 TO 32
OFFSET CHANGED FROM 32 TO 32
OFFSET CHANGED FROM 32 TO 32
OFFSET CHANGED FROM 32 TO 32
OFFSET CHANGED FROM 32 TO 32
OFFSET CHANGED FROM 32 TO 32
OFFSET CHANGED FROM 32 TO 32
OFFSET CHANGED FROM 32 TO 32
OFFSET CHANGED FROM 32 TO 32
OFFSET CHANGED FROM 32 TO 32
Heartbeat CPU 0 instructions: 150000001 cycles: 194976193 heartbeat IPC: 0.46439 cumulative IPC: 0.569462 (Simulation time: 0 hr 7 min 29 sec) 
OFFSET CHANGED FROM 32 TO 32
OFFSET CHANGED FROM 32 TO 32
OFFSET CHANGED FROM 32 TO 32
OFFSET CHANGED FROM 32 TO 32
OFFSET CHANGED FROM 32 TO 32
OFFSET CHANGED FROM 32 TO 32
OFFSET CHANGED FROM 32 TO 32
OFFSET CHANGED FROM 32 TO 32
OFFSET CHANGED FROM 32 TO 32
OFFSET CHANGED FROM 32 TO 32
OFFSET CHANGED FROM 32 TO 32
OFFSET CHANGED FROM 32 TO 32
OFFSET CHANGED FROM 32 TO 32
OFFSET CHANGED FROM 32 TO 32
OFFSET CHANGED FROM 32 TO 32
OFFSET CHANGED FROM 32 TO 32
OFFSET CHANGED FROM 32 TO 32
OFFSET CHANGED FROM 32 TO 32
OFFSET CHANGED FROM 32 TO 32
OFFSET CHANGED FROM 32 TO 32
OFFSET CHANGED FROM 32 TO 32
OFFSET CHANGED FROM 32 TO 32
OFFSET CHANGED FROM 32 TO 32
OFFSET CHANGED FROM 32 TO 32
OFFSET CHANGED FROM 32 TO 32
OFFSET CHANGED FROM 32 TO 32
OFFSET CHANGED FROM 32 TO 32
OFFSET CHANGED FROM 32 TO 32
OFFSET CHANGED FROM 32 TO 32
OFFSET CHANGED FROM 32 TO 32
OFFSET CHANGED FROM 32 TO 32
OFFSET CHANGED FROM 32 TO 32
OFFSET CHANGED FROM 32 TO 32
OFFSET CHANGED FROM 32 TO 32
OFFSET CHANGED FROM 32 TO 32
OFFSET CHANGED FROM 32 TO 32
OFFSET CHANGED FROM 32 TO 32
OFFSET CHANGED FROM 32 TO 32
OFFSET CHANGED FROM 32 TO 32
OFFSET CHANGED FROM 32 TO 32
OFFSET CHANGED FROM 32 TO 32
OFFSET CHANGED FROM 32 TO 32
OFFSET CHANGED FROM 32 TO 32
OFFSET CHANGED FROM 32 TO 32
OFFSET CHANGED FROM 32 TO 32
OFFSET CHANGED FROM 32 TO 32
OFFSET CHANGED FROM 32 TO 32
Heartbeat CPU 0 instructions: 160000000 cycles: 209829159 heartbeat IPC: 0.673266 cumulative IPC: 0.577557 (Simulation time: 0 hr 7 min 57 sec) 
OFFSET CHANGED FROM 32 TO 32
OFFSET CHANGED FROM 32 TO 32
OFFSET CHANGED FROM 32 TO 32
OFFSET CHANGED FROM 32 TO 32
OFFSET CHANGED FROM 32 TO 32
OFFSET CHANGED FROM 32 TO 32
OFFSET CHANGED FROM 32 TO 32
OFFSET CHANGED FROM 32 TO 32
OFFSET CHANGED FROM 32 TO 32
OFFSET CHANGED FROM 32 TO 32
OFFSET CHANGED FROM 32 TO 32
OFFSET CHANGED FROM 32 TO 32
OFFSET CHANGED FROM 32 TO 32
OFFSET CHANGED FROM 32 TO 32
OFFSET CHANGED FROM 32 TO 32
OFFSET CHANGED FROM 32 TO 32
OFFSET CHANGED FROM 32 TO 32
OFFSET CHANGED FROM 32 TO 32
OFFSET CHANGED FROM 32 TO 32
OFFSET CHANGED FROM 32 TO 32
OFFSET CHANGED FROM 32 TO 32
OFFSET CHANGED FROM 32 TO 32
OFFSET CHANGED FROM 32 TO 32
OFFSET CHANGED FROM 32 TO 32
OFFSET CHANGED FROM 32 TO 32
OFFSET CHANGED FROM 32 TO 32
OFFSET CHANGED FROM 32 TO 32
OFFSET CHANGED FROM 32 TO 32
OFFSET CHANGED FROM 32 TO 32
OFFSET CHANGED FROM 32 TO 32
OFFSET CHANGED FROM 32 TO 32
OFFSET CHANGED FROM 32 TO 32
OFFSET CHANGED FROM 32 TO 32
OFFSET CHANGED FROM 32 TO 32
OFFSET CHANGED FROM 32 TO 32
OFFSET CHANGED FROM 32 TO 32
Heartbeat CPU 0 instructions: 170000002 cycles: 223225224 heartbeat IPC: 0.746488 cumulative IPC: 0.588658 (Simulation time: 0 hr 8 min 23 sec) 
OFFSET CHANGED FROM 32 TO 32
OFFSET CHANGED FROM 32 TO 32
OFFSET CHANGED FROM 32 TO 32
OFFSET CHANGED FROM 32 TO 32
OFFSET CHANGED FROM 32 TO 32
OFFSET CHANGED FROM 32 TO 32
OFFSET CHANGED FROM 32 TO 32
OFFSET CHANGED FROM 32 TO 32
OFFSET CHANGED FROM 32 TO 32
OFFSET CHANGED FROM 32 TO 32
OFFSET CHANGED FROM 32 TO 32
OFFSET CHANGED FROM 32 TO 32
OFFSET CHANGED FROM 32 TO 32
OFFSET CHANGED FROM 32 TO 32
OFFSET CHANGED FROM 32 TO 32
OFFSET CHANGED FROM 32 TO 32
OFFSET CHANGED FROM 32 TO 32
OFFSET CHANGED FROM 32 TO 32
OFFSET CHANGED FROM 32 TO 32
OFFSET CHANGED FROM 32 TO 32
OFFSET CHANGED FROM 32 TO 32
OFFSET CHANGED FROM 32 TO 32
OFFSET CHANGED FROM 32 TO 32
OFFSET CHANGED FROM 32 TO 32
OFFSET CHANGED FROM 32 TO 32
OFFSET CHANGED FROM 32 TO 32
OFFSET CHANGED FROM 32 TO 32
OFFSET CHANGED FROM 32 TO 32
OFFSET CHANGED FROM 32 TO 32
OFFSET CHANGED FROM 32 TO 32
OFFSET CHANGED FROM 32 TO 32
OFFSET CHANGED FROM 32 TO 32
OFFSET CHANGED FROM 32 TO 32
OFFSET CHANGED FROM 32 TO 32
OFFSET CHANGED FROM 32 TO 32
OFFSET CHANGED FROM 32 TO 32
Heartbeat CPU 0 instructions: 180000000 cycles: 236813217 heartbeat IPC: 0.735944 cumulative IPC: 0.597862 (Simulation time: 0 hr 8 min 49 sec) 
OFFSET CHANGED FROM 32 TO 32
OFFSET CHANGED FROM 32 TO 32
OFFSET CHANGED FROM 32 TO 32
OFFSET CHANGED FROM 32 TO 32
OFFSET CHANGED FROM 32 TO 32
OFFSET CHANGED FROM 32 TO 32
OFFSET CHANGED FROM 32 TO 32
OFFSET CHANGED FROM 32 TO 32
OFFSET CHANGED FROM 32 TO 32
OFFSET CHANGED FROM 32 TO 32
OFFSET CHANGED FROM 32 TO 32
OFFSET CHANGED FROM 32 TO 32
OFFSET CHANGED FROM 32 TO 32
OFFSET CHANGED FROM 32 TO 32
OFFSET CHANGED FROM 32 TO 32
OFFSET CHANGED FROM 32 TO 32
OFFSET CHANGED FROM 32 TO 32
OFFSET CHANGED FROM 32 TO 32
OFFSET CHANGED FROM 32 TO 32
OFFSET CHANGED FROM 32 TO 32
OFFSET CHANGED FROM 32 TO 32
OFFSET CHANGED FROM 32 TO 32
OFFSET CHANGED FROM 32 TO 32
OFFSET CHANGED FROM 32 TO 32
OFFSET CHANGED FROM 32 TO 32
OFFSET CHANGED FROM 32 TO 32
OFFSET CHANGED FROM 32 TO 32
OFFSET CHANGED FROM 32 TO 32
OFFSET CHANGED FROM 32 TO 32
OFFSET CHANGED FROM 32 TO 32
OFFSET CHANGED FROM 32 TO 32
OFFSET CHANGED FROM 32 TO 32
OFFSET CHANGED FROM 32 TO 32
OFFSET CHANGED FROM 32 TO 32
OFFSET CHANGED FROM 32 TO 32
Heartbeat CPU 0 instructions: 190000000 cycles: 250375606 heartbeat IPC: 0.737333 cumulative IPC: 0.606051 (Simulation time: 0 hr 9 min 14 sec) 
OFFSET CHANGED FROM 32 TO 32
OFFSET CHANGED FROM 32 TO 32
OFFSET CHANGED FROM 32 TO 32
OFFSET CHANGED FROM 32 TO 32
OFFSET CHANGED FROM 32 TO 32
OFFSET CHANGED FROM 32 TO 32
OFFSET CHANGED FROM 32 TO 32
OFFSET CHANGED FROM 32 TO 32
OFFSET CHANGED FROM 32 TO 32
OFFSET CHANGED FROM 32 TO 32
OFFSET CHANGED FROM 32 TO 32
OFFSET CHANGED FROM 32 TO 32
OFFSET CHANGED FROM 32 TO 32
OFFSET CHANGED FROM 32 TO 32
OFFSET CHANGED FROM 32 TO 32
OFFSET CHANGED FROM 32 TO 32
OFFSET CHANGED FROM 32 TO 32
OFFSET CHANGED FROM 32 TO 32
OFFSET CHANGED FROM 32 TO 32
OFFSET CHANGED FROM 32 TO 32
OFFSET CHANGED FROM 32 TO 32
OFFSET CHANGED FROM 32 TO 32
OFFSET CHANGED FROM 32 TO 32
OFFSET CHANGED FROM 32 TO 32
OFFSET CHANGED FROM 32 TO 32
OFFSET CHANGED FROM 32 TO 32
OFFSET CHANGED FROM 32 TO 32
OFFSET CHANGED FROM 32 TO 32
OFFSET CHANGED FROM 32 TO 32
OFFSET CHANGED FROM 32 TO 32
OFFSET CHANGED FROM 32 TO 32
OFFSET CHANGED FROM 32 TO 32
OFFSET CHANGED FROM 32 TO 32
OFFSET CHANGED FROM 32 TO 32
OFFSET CHANGED FROM 32 TO 32
OFFSET CHANGED FROM 32 TO 32
Heartbeat CPU 0 instructions: 200000002 cycles: 263904633 heartbeat IPC: 0.739152 cumulative IPC: 0.613415 (Simulation time: 0 hr 9 min 40 sec) 
OFFSET CHANGED FROM 32 TO 32
OFFSET CHANGED FROM 32 TO 32
OFFSET CHANGED FROM 32 TO 32
OFFSET CHANGED FROM 32 TO 32
OFFSET CHANGED FROM 32 TO 32
OFFSET CHANGED FROM 32 TO 32
OFFSET CHANGED FROM 32 TO 32
OFFSET CHANGED FROM 32 TO 32
OFFSET CHANGED FROM 32 TO 32
OFFSET CHANGED FROM 32 TO 32
OFFSET CHANGED FROM 32 TO 32
OFFSET CHANGED FROM 32 TO 32
OFFSET CHANGED FROM 32 TO 32
OFFSET CHANGED FROM 32 TO 32
OFFSET CHANGED FROM 32 TO 32
OFFSET CHANGED FROM 32 TO 32
OFFSET CHANGED FROM 32 TO 32
OFFSET CHANGED FROM 32 TO 32
OFFSET CHANGED FROM 32 TO 32
OFFSET CHANGED FROM 32 TO 32
OFFSET CHANGED FROM 32 TO 32
OFFSET CHANGED FROM 32 TO 32
OFFSET CHANGED FROM 32 TO 32
OFFSET CHANGED FROM 32 TO 32
OFFSET CHANGED FROM 32 TO 32
OFFSET CHANGED FROM 32 TO 32
OFFSET CHANGED FROM 32 TO 32
OFFSET CHANGED FROM 32 TO 32
OFFSET CHANGED FROM 32 TO 32
OFFSET CHANGED FROM 32 TO 32
OFFSET CHANGED FROM 32 TO 32
OFFSET CHANGED FROM 32 TO 32
OFFSET CHANGED FROM 32 TO 32
OFFSET CHANGED FROM 32 TO 32
Heartbeat CPU 0 instructions: 210000001 cycles: 277432786 heartbeat IPC: 0.739199 cumulative IPC: 0.620009 (Simulation time: 0 hr 10 min 6 sec) 
OFFSET CHANGED FROM 32 TO 32
OFFSET CHANGED FROM 32 TO 32
OFFSET CHANGED FROM 32 TO 32
OFFSET CHANGED FROM 32 TO 32
OFFSET CHANGED FROM 32 TO 32
OFFSET CHANGED FROM 32 TO 32
OFFSET CHANGED FROM 32 TO 32
OFFSET CHANGED FROM 32 TO 32
OFFSET CHANGED FROM 32 TO 32
OFFSET CHANGED FROM 32 TO 32
OFFSET CHANGED FROM 32 TO 32
OFFSET CHANGED FROM 32 TO 32
OFFSET CHANGED FROM 32 TO 32
OFFSET CHANGED FROM 32 TO 32
OFFSET CHANGED FROM 32 TO 32
OFFSET CHANGED FROM 32 TO 32
OFFSET CHANGED FROM 32 TO 32
OFFSET CHANGED FROM 32 TO 32
OFFSET CHANGED FROM 32 TO 32
OFFSET CHANGED FROM 32 TO 32
OFFSET CHANGED FROM 32 TO 32
OFFSET CHANGED FROM 32 TO 32
OFFSET CHANGED FROM 32 TO 32
OFFSET CHANGED FROM 32 TO 32
OFFSET CHANGED FROM 32 TO 32
OFFSET CHANGED FROM 32 TO 32
OFFSET CHANGED FROM 32 TO 32
OFFSET CHANGED FROM 32 TO 32
OFFSET CHANGED FROM 32 TO 32
OFFSET CHANGED FROM 32 TO 32
OFFSET CHANGED FROM 32 TO 32
OFFSET CHANGED FROM 32 TO 32
OFFSET CHANGED FROM 32 TO 32
OFFSET CHANGED FROM 32 TO 32
OFFSET CHANGED FROM 32 TO 32
OFFSET CHANGED FROM 32 TO 32
Heartbeat CPU 0 instructions: 220000000 cycles: 290955229 heartbeat IPC: 0.739511 cumulative IPC: 0.625959 (Simulation time: 0 hr 10 min 33 sec) 
OFFSET CHANGED FROM 32 TO 32
OFFSET CHANGED FROM 32 TO 32
OFFSET CHANGED FROM 32 TO 32
OFFSET CHANGED FROM 32 TO 32
OFFSET CHANGED FROM 32 TO 32
OFFSET CHANGED FROM 32 TO 32
OFFSET CHANGED FROM 32 TO 32
OFFSET CHANGED FROM 32 TO 32
OFFSET CHANGED FROM 32 TO 32
OFFSET CHANGED FROM 32 TO 32
OFFSET CHANGED FROM 32 TO 32
OFFSET CHANGED FROM 32 TO 32
OFFSET CHANGED FROM 32 TO 32
OFFSET CHANGED FROM 32 TO 32
OFFSET CHANGED FROM 32 TO 32
OFFSET CHANGED FROM 32 TO 32
OFFSET CHANGED FROM 32 TO 32
OFFSET CHANGED FROM 32 TO 32
OFFSET CHANGED FROM 32 TO 32
OFFSET CHANGED FROM 32 TO 32
OFFSET CHANGED FROM 32 TO 32
OFFSET CHANGED FROM 32 TO 32
OFFSET CHANGED FROM 32 TO 32
OFFSET CHANGED FROM 32 TO 32
OFFSET CHANGED FROM 32 TO 32
OFFSET CHANGED FROM 32 TO 32
OFFSET CHANGED FROM 32 TO 32
OFFSET CHANGED FROM 32 TO 32
OFFSET CHANGED FROM 32 TO 32
OFFSET CHANGED FROM 32 TO 32
OFFSET CHANGED FROM 32 TO 32
OFFSET CHANGED FROM 32 TO 32
OFFSET CHANGED FROM 32 TO 32
OFFSET CHANGED FROM 32 TO 32
OFFSET CHANGED FROM 32 TO 32
OFFSET CHANGED FROM 32 TO 32
OFFSET CHANGED FROM 32 TO 32
OFFSET CHANGED FROM 32 TO 32
OFFSET CHANGED FROM 32 TO 32
OFFSET CHANGED FROM 32 TO 32
OFFSET CHANGED FROM 32 TO 32
OFFSET CHANGED FROM 32 TO 32
OFFSET CHANGED FROM 32 TO 32
OFFSET CHANGED FROM 32 TO 32
OFFSET CHANGED FROM 32 TO 32
OFFSET CHANGED FROM 32 TO 32
OFFSET CHANGED FROM 32 TO 32
OFFSET CHANGED FROM 32 TO 32
OFFSET CHANGED FROM 32 TO 32
OFFSET CHANGED FROM 32 TO 32
OFFSET CHANGED FROM 32 TO 32
OFFSET CHANGED FROM 32 TO 32
OFFSET CHANGED FROM 32 TO 32
OFFSET CHANGED FROM 32 TO 32
OFFSET CHANGED FROM 32 TO 32
OFFSET CHANGED FROM 32 TO 32
OFFSET CHANGED FROM 32 TO 32
OFFSET CHANGED FROM 32 TO 32
OFFSET CHANGED FROM 32 TO 32
OFFSET CHANGED FROM 32 TO 32
OFFSET CHANGED FROM 32 TO 32
OFFSET CHANGED FROM 32 TO 32
OFFSET CHANGED FROM 32 TO 32
OFFSET CHANGED FROM 32 TO 32
OFFSET CHANGED FROM 32 TO 32
OFFSET CHANGED FROM 32 TO 32
OFFSET CHANGED FROM 32 TO 32
OFFSET CHANGED FROM 32 TO 32
Heartbeat CPU 0 instructions: 230000000 cycles: 310788054 heartbeat IPC: 0.504215 cumulative IPC: 0.617673 (Simulation time: 0 hr 11 min 9 sec) 
OFFSET CHANGED FROM 32 TO 32
OFFSET CHANGED FROM 32 TO 32
OFFSET CHANGED FROM 32 TO 32
OFFSET CHANGED FROM 32 TO 32
OFFSET CHANGED FROM 32 TO 32
OFFSET CHANGED FROM 32 TO 32
OFFSET CHANGED FROM 32 TO 32
OFFSET CHANGED FROM 32 TO 32
OFFSET CHANGED FROM 32 TO 32
OFFSET CHANGED FROM 32 TO 32
OFFSET CHANGED FROM 32 TO 32
OFFSET CHANGED FROM 32 TO 32
OFFSET CHANGED FROM 32 TO 32
OFFSET CHANGED FROM 32 TO 32
OFFSET CHANGED FROM 32 TO 32
OFFSET CHANGED FROM 32 TO 32
OFFSET CHANGED FROM 32 TO 32
OFFSET CHANGED FROM 32 TO 32
OFFSET CHANGED FROM 32 TO 32
OFFSET CHANGED FROM 32 TO 32
OFFSET CHANGED FROM 32 TO 32
OFFSET CHANGED FROM 32 TO 32
OFFSET CHANGED FROM 32 TO 32
OFFSET CHANGED FROM 32 TO 32
OFFSET CHANGED FROM 32 TO 32
OFFSET CHANGED FROM 32 TO 32
OFFSET CHANGED FROM 32 TO 32
OFFSET CHANGED FROM 32 TO 32
OFFSET CHANGED FROM 32 TO 32
OFFSET CHANGED FROM 32 TO 32
OFFSET CHANGED FROM 32 TO 32
OFFSET CHANGED FROM 32 TO 32
OFFSET CHANGED FROM 32 TO 32
OFFSET CHANGED FROM 32 TO 32
OFFSET CHANGED FROM 32 TO 32
OFFSET CHANGED FROM 32 TO 32
OFFSET CHANGED FROM 32 TO 32
OFFSET CHANGED FROM 32 TO 32
OFFSET CHANGED FROM 32 TO 32
OFFSET CHANGED FROM 32 TO 32
OFFSET CHANGED FROM 32 TO 32
OFFSET CHANGED FROM 32 TO 32
OFFSET CHANGED FROM 32 TO 32
OFFSET CHANGED FROM 32 TO 32
OFFSET CHANGED FROM 32 TO 32
OFFSET CHANGED FROM 32 TO 32
OFFSET CHANGED FROM 32 TO 32
OFFSET CHANGED FROM 32 TO 32
OFFSET CHANGED FROM 32 TO 32
OFFSET CHANGED FROM 32 TO 32
OFFSET CHANGED FROM 32 TO 32
OFFSET CHANGED FROM 32 TO 32
OFFSET CHANGED FROM 32 TO 32
OFFSET CHANGED FROM 32 TO 32
OFFSET CHANGED FROM 32 TO 32
OFFSET CHANGED FROM 32 TO 32
OFFSET CHANGED FROM 32 TO 32
OFFSET CHANGED FROM 32 TO 32
OFFSET CHANGED FROM 32 TO 32
OFFSET CHANGED FROM 32 TO 32
OFFSET CHANGED FROM 32 TO 32
OFFSET CHANGED FROM 32 TO 32
OFFSET CHANGED FROM 32 TO 32
OFFSET CHANGED FROM 32 TO 32
OFFSET CHANGED FROM 32 TO 32
OFFSET CHANGED FROM 32 TO 32
OFFSET CHANGED FROM 32 TO 32
OFFSET CHANGED FROM 32 TO 32
OFFSET CHANGED FROM 32 TO 32
OFFSET CHANGED FROM 32 TO 32
OFFSET CHANGED FROM 32 TO 32
OFFSET CHANGED FROM 32 TO 32
OFFSET CHANGED FROM 32 TO 32
OFFSET CHANGED FROM 32 TO 32
OFFSET CHANGED FROM 32 TO 32
OFFSET CHANGED FROM 32 TO 32
OFFSET CHANGED FROM 32 TO 32
OFFSET CHANGED FROM 32 TO 32
OFFSET CHANGED FROM 32 TO 32
OFFSET CHANGED FROM 32 TO 32
OFFSET CHANGED FROM 32 TO 32
OFFSET CHANGED FROM 32 TO 32
OFFSET CHANGED FROM 32 TO 32
OFFSET CHANGED FROM 32 TO 32
OFFSET CHANGED FROM 32 TO 32
OFFSET CHANGED FROM 32 TO 32
OFFSET CHANGED FROM 32 TO 32
OFFSET CHANGED FROM 32 TO 32
OFFSET CHANGED FROM 32 TO 32
Heartbeat CPU 0 instructions: 240000003 cycles: 329797578 heartbeat IPC: 0.526052 cumulative IPC: 0.612063 (Simulation time: 0 hr 11 min 42 sec) 
OFFSET CHANGED FROM 32 TO 32
OFFSET CHANGED FROM 32 TO 32
OFFSET CHANGED FROM 32 TO 32
OFFSET CHANGED FROM 32 TO 32
OFFSET CHANGED FROM 32 TO 32
OFFSET CHANGED FROM 32 TO 32
OFFSET CHANGED FROM 32 TO 32
OFFSET CHANGED FROM 32 TO 32
OFFSET CHANGED FROM 32 TO 32
OFFSET CHANGED FROM 32 TO 32
OFFSET CHANGED FROM 32 TO 32
OFFSET CHANGED FROM 32 TO 32
OFFSET CHANGED FROM 32 TO 32
OFFSET CHANGED FROM 32 TO 32
OFFSET CHANGED FROM 32 TO 32
OFFSET CHANGED FROM 32 TO 32
OFFSET CHANGED FROM 32 TO 32
OFFSET CHANGED FROM 32 TO 32
OFFSET CHANGED FROM 32 TO 32
OFFSET CHANGED FROM 32 TO 32
OFFSET CHANGED FROM 32 TO 32
OFFSET CHANGED FROM 32 TO 32
OFFSET CHANGED FROM 32 TO 32
OFFSET CHANGED FROM 32 TO 32
OFFSET CHANGED FROM 32 TO 32
OFFSET CHANGED FROM 32 TO 32
OFFSET CHANGED FROM 32 TO 32
OFFSET CHANGED FROM 32 TO 32
OFFSET CHANGED FROM 32 TO 32
OFFSET CHANGED FROM 32 TO 32
OFFSET CHANGED FROM 32 TO 32
OFFSET CHANGED FROM 32 TO 32
OFFSET CHANGED FROM 32 TO 32
OFFSET CHANGED FROM 32 TO 32
OFFSET CHANGED FROM 32 TO 32
OFFSET CHANGED FROM 32 TO 32
OFFSET CHANGED FROM 32 TO 32
OFFSET CHANGED FROM 32 TO 32
OFFSET CHANGED FROM 32 TO 32
OFFSET CHANGED FROM 32 TO 32
OFFSET CHANGED FROM 32 TO 32
OFFSET CHANGED FROM 32 TO 32
OFFSET CHANGED FROM 32 TO 32
OFFSET CHANGED FROM 32 TO 32
OFFSET CHANGED FROM 32 TO 32
OFFSET CHANGED FROM 32 TO 32
OFFSET CHANGED FROM 32 TO 32
OFFSET CHANGED FROM 32 TO 32
OFFSET CHANGED FROM 32 TO 32
OFFSET CHANGED FROM 32 TO 32
OFFSET CHANGED FROM 32 TO 32
OFFSET CHANGED FROM 32 TO 32
OFFSET CHANGED FROM 32 TO 32
OFFSET CHANGED FROM 32 TO 32
OFFSET CHANGED FROM 32 TO 32
OFFSET CHANGED FROM 32 TO 32
OFFSET CHANGED FROM 32 TO 24
PREFETCHING INTO L2 w/ PREFETCH SCORE 31 (MSHR OCC = 28)
PREFETCHING INTO L2 w/ PREFETCH SCORE 31 (MSHR OCC = 29)
OFFSET CHANGED FROM 24 TO 10
OFFSET CHANGED FROM 10 TO 8
OFFSET CHANGED FROM 8 TO 7
OFFSET CHANGED FROM 7 TO 6
OFFSET CHANGED FROM 6 TO 5
OFFSET CHANGED FROM 5 TO 5
OFFSET CHANGED FROM 5 TO 6
OFFSET CHANGED FROM 6 TO 4
OFFSET CHANGED FROM 4 TO 7
OFFSET CHANGED FROM 7 TO 9
PREFETCHING INTO L2 w/ PREFETCH SCORE 31 (MSHR OCC = 28)
PREFETCHING INTO L2 w/ PREFETCH SCORE 31 (MSHR OCC = 28)
PREFETCHING INTO L2 w/ PREFETCH SCORE 31 (MSHR OCC = 28)
OFFSET CHANGED FROM 9 TO 9
OFFSET CHANGED FROM 9 TO 10
PREFETCHING INTO L2 w/ PREFETCH SCORE 31 (MSHR OCC = 28)
PREFETCHING INTO L2 w/ PREFETCH SCORE 31 (MSHR OCC = 28)
PREFETCHING INTO L2 w/ PREFETCH SCORE 31 (MSHR OCC = 28)
PREFETCHING INTO L2 w/ PREFETCH SCORE 31 (MSHR OCC = 28)
PREFETCHING INTO L2 w/ PREFETCH SCORE 31 (MSHR OCC = 28)
OFFSET CHANGED FROM 10 TO 12
PREFETCHING INTO L2 w/ PREFETCH SCORE 31 (MSHR OCC = 29)
PREFETCHING INTO L2 w/ PREFETCH SCORE 31 (MSHR OCC = 29)
PREFETCHING INTO L2 w/ PREFETCH SCORE 31 (MSHR OCC = 30)
PREFETCHING INTO L2 w/ PREFETCH SCORE 31 (MSHR OCC = 28)
PREFETCHING INTO L2 w/ PREFETCH SCORE 31 (MSHR OCC = 28)
PREFETCHING INTO L2 w/ PREFETCH SCORE 31 (MSHR OCC = 29)
PREFETCHING INTO L2 w/ PREFETCH SCORE 31 (MSHR OCC = 28)
PREFETCHING INTO L2 w/ PREFETCH SCORE 31 (MSHR OCC = 29)
PREFETCHING INTO L2 w/ PREFETCH SCORE 31 (MSHR OCC = 29)
PREFETCHING INTO L2 w/ PREFETCH SCORE 31 (MSHR OCC = 28)
PREFETCHING INTO L2 w/ PREFETCH SCORE 31 (MSHR OCC = 29)
PREFETCHING INTO L2 w/ PREFETCH SCORE 31 (MSHR OCC = 28)
PREFETCHING INTO L2 w/ PREFETCH SCORE 31 (MSHR OCC = 29)
PREFETCHING INTO L2 w/ PREFETCH SCORE 31 (MSHR OCC = 30)
PREFETCHING INTO L2 w/ PREFETCH SCORE 31 (MSHR OCC = 28)
PREFETCHING INTO L2 w/ PREFETCH SCORE 31 (MSHR OCC = 28)
PREFETCHING INTO L2 w/ PREFETCH SCORE 31 (MSHR OCC = 28)
PREFETCHING INTO L2 w/ PREFETCH SCORE 31 (MSHR OCC = 30)
PREFETCHING INTO L2 w/ PREFETCH SCORE 31 (MSHR OCC = 29)
PREFETCHING INTO L2 w/ PREFETCH SCORE 31 (MSHR OCC = 29)
PREFETCHING INTO L2 w/ PREFETCH SCORE 31 (MSHR OCC = 28)
PREFETCHING INTO L2 w/ PREFETCH SCORE 31 (MSHR OCC = 28)
PREFETCHING INTO L2 w/ PREFETCH SCORE 31 (MSHR OCC = 29)
PREFETCHING INTO L2 w/ PREFETCH SCORE 31 (MSHR OCC = 29)
PREFETCHING INTO L2 w/ PREFETCH SCORE 31 (MSHR OCC = 29)
OFFSET CHANGED FROM 12 TO 9
OFFSET CHANGED FROM 9 TO 5
OFFSET CHANGED FROM 5 TO 6
OFFSET CHANGED FROM 6 TO 8
OFFSET CHANGED FROM 8 TO 7
OFFSET CHANGED FROM 7 TO 6
OFFSET CHANGED FROM 6 TO 4
OFFSET CHANGED FROM 4 TO 5
OFFSET CHANGED FROM 5 TO 7
OFFSET CHANGED FROM 7 TO 8
OFFSET CHANGED FROM 8 TO 8
OFFSET CHANGED FROM 8 TO 7
OFFSET CHANGED FROM 7 TO 9
OFFSET CHANGED FROM 9 TO 5
OFFSET CHANGED FROM 5 TO 5
OFFSET CHANGED FROM 5 TO 6
OFFSET CHANGED FROM 6 TO 8
OFFSET CHANGED FROM 8 TO 6
OFFSET CHANGED FROM 6 TO 6
OFFSET CHANGED FROM 6 TO 5
OFFSET CHANGED FROM 5 TO 7
OFFSET CHANGED FROM 7 TO 6
OFFSET CHANGED FROM 6 TO 8
OFFSET CHANGED FROM 8 TO 5
OFFSET CHANGED FROM 5 TO 4
OFFSET CHANGED FROM 4 TO 4
OFFSET CHANGED FROM 4 TO 8
OFFSET CHANGED FROM 8 TO 9
OFFSET CHANGED FROM 9 TO 9
OFFSET CHANGED FROM 9 TO 6
OFFSET CHANGED FROM 6 TO 7
OFFSET CHANGED FROM 7 TO 8
OFFSET CHANGED FROM 8 TO 6
OFFSET CHANGED FROM 6 TO 5
OFFSET CHANGED FROM 5 TO 7
OFFSET CHANGED FROM 7 TO 6
OFFSET CHANGED FROM 6 TO 5
OFFSET CHANGED FROM 5 TO 4
OFFSET CHANGED FROM 4 TO 4
OFFSET CHANGED FROM 4 TO 5
OFFSET CHANGED FROM 5 TO 5
OFFSET CHANGED FROM 5 TO 7
OFFSET CHANGED FROM 7 TO 9
OFFSET CHANGED FROM 9 TO 8
OFFSET CHANGED FROM 8 TO 7
OFFSET CHANGED FROM 7 TO 4
OFFSET CHANGED FROM 4 TO 8
OFFSET CHANGED FROM 8 TO 4
OFFSET CHANGED FROM 4 TO 6
OFFSET CHANGED FROM 6 TO 5
OFFSET CHANGED FROM 5 TO 7
OFFSET CHANGED FROM 7 TO 6
OFFSET CHANGED FROM 6 TO 5
OFFSET CHANGED FROM 5 TO 7
Heartbeat CPU 0 instructions: 250000000 cycles: 350624241 heartbeat IPC: 0.480154 cumulative IPC: 0.603769 (Simulation time: 0 hr 12 min 24 sec) 
OFFSET CHANGED FROM 7 TO 6
OFFSET CHANGED FROM 6 TO 5
OFFSET CHANGED FROM 5 TO 7
OFFSET CHANGED FROM 7 TO 9
OFFSET CHANGED FROM 9 TO 9
OFFSET CHANGED FROM 9 TO 5
OFFSET CHANGED FROM 5 TO 6
OFFSET CHANGED FROM 6 TO 6
OFFSET CHANGED FROM 6 TO 8
OFFSET CHANGED FROM 8 TO 5
OFFSET CHANGED FROM 5 TO 5
OFFSET CHANGED FROM 5 TO 5
OFFSET CHANGED FROM 5 TO 7
OFFSET CHANGED FROM 7 TO 6
OFFSET CHANGED FROM 6 TO 5
OFFSET CHANGED FROM 5 TO 6
OFFSET CHANGED FROM 6 TO 6
OFFSET CHANGED FROM 6 TO 8
OFFSET CHANGED FROM 8 TO 6
OFFSET CHANGED FROM 6 TO 7
OFFSET CHANGED FROM 7 TO 6
OFFSET CHANGED FROM 6 TO 6
OFFSET CHANGED FROM 6 TO 6
OFFSET CHANGED FROM 6 TO 5
OFFSET CHANGED FROM 5 TO 4
OFFSET CHANGED FROM 4 TO 4
OFFSET CHANGED FROM 4 TO 32
OFFSET CHANGED FROM 32 TO 32
OFFSET CHANGED FROM 32 TO 32
OFFSET CHANGED FROM 32 TO 32
OFFSET CHANGED FROM 32 TO 32
OFFSET CHANGED FROM 32 TO 32
OFFSET CHANGED FROM 32 TO 32
OFFSET CHANGED FROM 32 TO 32
OFFSET CHANGED FROM 32 TO 32
OFFSET CHANGED FROM 32 TO 32
OFFSET CHANGED FROM 32 TO 32
OFFSET CHANGED FROM 32 TO 32
OFFSET CHANGED FROM 32 TO 32
OFFSET CHANGED FROM 32 TO 32
OFFSET CHANGED FROM 32 TO 32
OFFSET CHANGED FROM 32 TO 32
OFFSET CHANGED FROM 32 TO 32
OFFSET CHANGED FROM 32 TO 32
OFFSET CHANGED FROM 32 TO 32
OFFSET CHANGED FROM 32 TO 32
OFFSET CHANGED FROM 32 TO 32
OFFSET CHANGED FROM 32 TO 32
OFFSET CHANGED FROM 32 TO 32
OFFSET CHANGED FROM 32 TO 32
OFFSET CHANGED FROM 32 TO 32
OFFSET CHANGED FROM 32 TO 32
OFFSET CHANGED FROM 32 TO 32
OFFSET CHANGED FROM 32 TO 32
OFFSET CHANGED FROM 32 TO 32
OFFSET CHANGED FROM 32 TO 32
OFFSET CHANGED FROM 32 TO 32
OFFSET CHANGED FROM 32 TO 32
OFFSET CHANGED FROM 32 TO 32
OFFSET CHANGED FROM 32 TO 32
OFFSET CHANGED FROM 32 TO 32
OFFSET CHANGED FROM 32 TO 32
OFFSET CHANGED FROM 32 TO 32
OFFSET CHANGED FROM 32 TO 32
OFFSET CHANGED FROM 32 TO 32
OFFSET CHANGED FROM 32 TO 32
OFFSET CHANGED FROM 32 TO 32
OFFSET CHANGED FROM 32 TO 32
OFFSET CHANGED FROM 32 TO 32
OFFSET CHANGED FROM 32 TO 32
OFFSET CHANGED FROM 32 TO 32
OFFSET CHANGED FROM 32 TO 32
OFFSET CHANGED FROM 32 TO 32
OFFSET CHANGED FROM 32 TO 32
OFFSET CHANGED FROM 32 TO 32
OFFSET CHANGED FROM 32 TO 32
OFFSET CHANGED FROM 32 TO 32
OFFSET CHANGED FROM 32 TO 32
OFFSET CHANGED FROM 32 TO 32
OFFSET CHANGED FROM 32 TO 32
OFFSET CHANGED FROM 32 TO 32
OFFSET CHANGED FROM 32 TO 32
OFFSET CHANGED FROM 32 TO 32
OFFSET CHANGED FROM 32 TO 32
OFFSET CHANGED FROM 32 TO 32
OFFSET CHANGED FROM 32 TO 32
OFFSET CHANGED FROM 32 TO 32
OFFSET CHANGED FROM 32 TO 32
OFFSET CHANGED FROM 32 TO 32
Heartbeat CPU 0 instructions: 260000003 cycles: 370261167 heartbeat IPC: 0.509245 cumulative IPC: 0.598479 (Simulation time: 0 hr 13 min 4 sec) 
OFFSET CHANGED FROM 32 TO 32
OFFSET CHANGED FROM 32 TO 32
OFFSET CHANGED FROM 32 TO 32
OFFSET CHANGED FROM 32 TO 32
OFFSET CHANGED FROM 32 TO 32
OFFSET CHANGED FROM 32 TO 32
OFFSET CHANGED FROM 32 TO 32
OFFSET CHANGED FROM 32 TO 32
OFFSET CHANGED FROM 32 TO 32
OFFSET CHANGED FROM 32 TO 32
OFFSET CHANGED FROM 32 TO 32
OFFSET CHANGED FROM 32 TO 32
OFFSET CHANGED FROM 32 TO 32
OFFSET CHANGED FROM 32 TO 32
OFFSET CHANGED FROM 32 TO 32
OFFSET CHANGED FROM 32 TO 32
OFFSET CHANGED FROM 32 TO 32
OFFSET CHANGED FROM 32 TO 32
OFFSET CHANGED FROM 32 TO 32
OFFSET CHANGED FROM 32 TO 32
OFFSET CHANGED FROM 32 TO 32
OFFSET CHANGED FROM 32 TO 32
OFFSET CHANGED FROM 32 TO 32
OFFSET CHANGED FROM 32 TO 32
OFFSET CHANGED FROM 32 TO 32
OFFSET CHANGED FROM 32 TO 32
OFFSET CHANGED FROM 32 TO 32
OFFSET CHANGED FROM 32 TO 32
OFFSET CHANGED FROM 32 TO 32
OFFSET CHANGED FROM 32 TO 32
OFFSET CHANGED FROM 32 TO 32
OFFSET CHANGED FROM 32 TO 32
OFFSET CHANGED FROM 32 TO 32
OFFSET CHANGED FROM 32 TO 32
OFFSET CHANGED FROM 32 TO 32
OFFSET CHANGED FROM 32 TO 32
OFFSET CHANGED FROM 32 TO 32
OFFSET CHANGED FROM 32 TO 32
OFFSET CHANGED FROM 32 TO 32
OFFSET CHANGED FROM 32 TO 32
OFFSET CHANGED FROM 32 TO 32
OFFSET CHANGED FROM 32 TO 32
OFFSET CHANGED FROM 32 TO 32
OFFSET CHANGED FROM 32 TO 32
OFFSET CHANGED FROM 32 TO 32
OFFSET CHANGED FROM 32 TO 32
OFFSET CHANGED FROM 32 TO 32
OFFSET CHANGED FROM 32 TO 32
OFFSET CHANGED FROM 32 TO 32
OFFSET CHANGED FROM 32 TO 32
OFFSET CHANGED FROM 32 TO 32
OFFSET CHANGED FROM 32 TO 32
OFFSET CHANGED FROM 32 TO 32
OFFSET CHANGED FROM 32 TO 32
OFFSET CHANGED FROM 32 TO 32
OFFSET CHANGED FROM 32 TO 32
OFFSET CHANGED FROM 32 TO 32
OFFSET CHANGED FROM 32 TO 32
OFFSET CHANGED FROM 32 TO 32
OFFSET CHANGED FROM 32 TO 32
OFFSET CHANGED FROM 32 TO 32
OFFSET CHANGED FROM 32 TO 32
OFFSET CHANGED FROM 32 TO 32
OFFSET CHANGED FROM 32 TO 32
OFFSET CHANGED FROM 32 TO 32
OFFSET CHANGED FROM 32 TO 32
OFFSET CHANGED FROM 32 TO 32
OFFSET CHANGED FROM 32 TO 32
OFFSET CHANGED FROM 32 TO 32
OFFSET CHANGED FROM 32 TO 32
OFFSET CHANGED FROM 32 TO 32
OFFSET CHANGED FROM 32 TO 32
OFFSET CHANGED FROM 32 TO 32
OFFSET CHANGED FROM 32 TO 32
OFFSET CHANGED FROM 32 TO 32
OFFSET CHANGED FROM 32 TO 32
OFFSET CHANGED FROM 32 TO 32
OFFSET CHANGED FROM 32 TO 32
OFFSET CHANGED FROM 32 TO 32
OFFSET CHANGED FROM 32 TO 32
OFFSET CHANGED FROM 32 TO 32
OFFSET CHANGED FROM 32 TO 32
OFFSET CHANGED FROM 32 TO 32
OFFSET CHANGED FROM 32 TO 32
Heartbeat CPU 0 instructions: 270000003 cycles: 391013125 heartbeat IPC: 0.481882 cumulative IPC: 0.591969 (Simulation time: 0 hr 13 min 41 sec) 
OFFSET CHANGED FROM 32 TO 32
OFFSET CHANGED FROM 32 TO 32
OFFSET CHANGED FROM 32 TO 32
OFFSET CHANGED FROM 32 TO 32
OFFSET CHANGED FROM 32 TO 32
OFFSET CHANGED FROM 32 TO 32
OFFSET CHANGED FROM 32 TO 32
OFFSET CHANGED FROM 32 TO 32
OFFSET CHANGED FROM 32 TO 32
OFFSET CHANGED FROM 32 TO 32
OFFSET CHANGED FROM 32 TO 32
OFFSET CHANGED FROM 32 TO 32
OFFSET CHANGED FROM 32 TO 32
OFFSET CHANGED FROM 32 TO 32
OFFSET CHANGED FROM 32 TO 32
OFFSET CHANGED FROM 32 TO 32
OFFSET CHANGED FROM 32 TO 32
OFFSET CHANGED FROM 32 TO 32
OFFSET CHANGED FROM 32 TO 32
OFFSET CHANGED FROM 32 TO 32
OFFSET CHANGED FROM 32 TO 32
OFFSET CHANGED FROM 32 TO 32
OFFSET CHANGED FROM 32 TO 32
OFFSET CHANGED FROM 32 TO 32
OFFSET CHANGED FROM 32 TO 32
OFFSET CHANGED FROM 32 TO 32
OFFSET CHANGED FROM 32 TO 32
OFFSET CHANGED FROM 32 TO 32
OFFSET CHANGED FROM 32 TO 32
OFFSET CHANGED FROM 32 TO 32
OFFSET CHANGED FROM 32 TO 32
OFFSET CHANGED FROM 32 TO 32
OFFSET CHANGED FROM 32 TO 32
OFFSET CHANGED FROM 32 TO 32
OFFSET CHANGED FROM 32 TO 32
OFFSET CHANGED FROM 32 TO 32
OFFSET CHANGED FROM 32 TO 32
OFFSET CHANGED FROM 32 TO 32
OFFSET CHANGED FROM 32 TO 32
OFFSET CHANGED FROM 32 TO 32
OFFSET CHANGED FROM 32 TO 32
OFFSET CHANGED FROM 32 TO 32
OFFSET CHANGED FROM 32 TO 32
OFFSET CHANGED FROM 32 TO 32
OFFSET CHANGED FROM 32 TO 32
OFFSET CHANGED FROM 32 TO 32
OFFSET CHANGED FROM 32 TO 32
OFFSET CHANGED FROM 32 TO 32
OFFSET CHANGED FROM 32 TO 32
OFFSET CHANGED FROM 32 TO 32
OFFSET CHANGED FROM 32 TO 32
OFFSET CHANGED FROM 32 TO 32
OFFSET CHANGED FROM 32 TO 32
OFFSET CHANGED FROM 32 TO 32
OFFSET CHANGED FROM 32 TO 32
OFFSET CHANGED FROM 32 TO 32
OFFSET CHANGED FROM 32 TO 32
OFFSET CHANGED FROM 32 TO 32
OFFSET CHANGED FROM 32 TO 32
OFFSET CHANGED FROM 32 TO 32
OFFSET CHANGED FROM 32 TO 32
OFFSET CHANGED FROM 32 TO 32
OFFSET CHANGED FROM 32 TO 32
OFFSET CHANGED FROM 32 TO 32
Heartbeat CPU 0 instructions: 280000000 cycles: 409108207 heartbeat IPC: 0.552636 cumulative IPC: 0.590142 (Simulation time: 0 hr 14 min 12 sec) 
OFFSET CHANGED FROM 32 TO 32
OFFSET CHANGED FROM 32 TO 32
OFFSET CHANGED FROM 32 TO 32
OFFSET CHANGED FROM 32 TO 32
OFFSET CHANGED FROM 32 TO 32
OFFSET CHANGED FROM 32 TO 32
OFFSET CHANGED FROM 32 TO 32
OFFSET CHANGED FROM 32 TO 32
OFFSET CHANGED FROM 32 TO 32
OFFSET CHANGED FROM 32 TO 32
OFFSET CHANGED FROM 32 TO 32
OFFSET CHANGED FROM 32 TO 32
OFFSET CHANGED FROM 32 TO 32
OFFSET CHANGED FROM 32 TO 32
OFFSET CHANGED FROM 32 TO 32
OFFSET CHANGED FROM 32 TO 32
OFFSET CHANGED FROM 32 TO 32
OFFSET CHANGED FROM 32 TO 32
OFFSET CHANGED FROM 32 TO 32
OFFSET CHANGED FROM 32 TO 32
OFFSET CHANGED FROM 32 TO 32
OFFSET CHANGED FROM 32 TO 32
OFFSET CHANGED FROM 32 TO 32
OFFSET CHANGED FROM 32 TO 32
OFFSET CHANGED FROM 32 TO 32
OFFSET CHANGED FROM 32 TO 32
OFFSET CHANGED FROM 32 TO 32
Heartbeat CPU 0 instructions: 290000002 cycles: 422974824 heartbeat IPC: 0.721157 cumulative IPC: 0.594644 (Simulation time: 0 hr 14 min 38 sec) 
OFFSET CHANGED FROM 32 TO 32
OFFSET CHANGED FROM 32 TO 32
OFFSET CHANGED FROM 32 TO 32
OFFSET CHANGED FROM 32 TO 32
OFFSET CHANGED FROM 32 TO 32
OFFSET CHANGED FROM 32 TO 32
OFFSET CHANGED FROM 32 TO 32
OFFSET CHANGED FROM 32 TO 32
OFFSET CHANGED FROM 32 TO 32
OFFSET CHANGED FROM 32 TO 32
OFFSET CHANGED FROM 32 TO 32
OFFSET CHANGED FROM 32 TO 32
OFFSET CHANGED FROM 32 TO 32
OFFSET CHANGED FROM 32 TO 32
OFFSET CHANGED FROM 32 TO 32
OFFSET CHANGED FROM 32 TO 32
OFFSET CHANGED FROM 32 TO 32
OFFSET CHANGED FROM 32 TO 32
OFFSET CHANGED FROM 32 TO 32
OFFSET CHANGED FROM 32 TO 32
OFFSET CHANGED FROM 32 TO 32
OFFSET CHANGED FROM 32 TO 32
OFFSET CHANGED FROM 32 TO 32
OFFSET CHANGED FROM 32 TO 32
OFFSET CHANGED FROM 32 TO 32
OFFSET CHANGED FROM 32 TO 32
OFFSET CHANGED FROM 32 TO 32
OFFSET CHANGED FROM 32 TO 32
Heartbeat CPU 0 instructions: 300000002 cycles: 436728770 heartbeat IPC: 0.727064 cumulative IPC: 0.599008 (Simulation time: 0 hr 15 min 5 sec) 
Finished CPU 0 instructions: 250000000 cycles: 417356928 cumulative IPC: 0.599008 (Simulation time: 0 hr 15 min 5 sec) 

ChampSim completed all CPUs

Region of Interest Statistics

CPU 0 cumulative IPC: 0.599008 instructions: 250000000 cycles: 417356928
L1D TOTAL     ACCESS:   56024530  HIT:   50927156  MISS:    5097374
L1D LOAD      ACCESS:   30673896  HIT:   26376544  MISS:    4297352
L1D RFO       ACCESS:   25350634  HIT:   24550612  MISS:     800022
L1D PREFETCH  ACCESS:          0  HIT:          0  MISS:          0
L1D WRITEBACK ACCESS:          0  HIT:          0  MISS:          0
L1D PREFETCH  REQUESTED:          0  ISSUED:          0  USEFUL:          0  USELESS:          0
L1D AVERAGE MISS LATENCY: 151.811 cycles
L1I TOTAL     ACCESS:   45221481  HIT:   45221423  MISS:         58
L1I LOAD      ACCESS:   45221455  HIT:   45221420  MISS:         35
L1I RFO       ACCESS:          0  HIT:          0  MISS:          0
L1I PREFETCH  ACCESS:         26  HIT:          3  MISS:         23
L1I WRITEBACK ACCESS:          0  HIT:          0  MISS:          0
L1I PREFETCH  REQUESTED:         42  ISSUED:         42  USEFUL:         13  USELESS:          0
L1I AVERAGE MISS LATENCY: 183.103 cycles
L2C TOTAL     ACCESS:    8651198  HIT:    3292172  MISS:    5359026
L2C LOAD      ACCESS:    4297385  HIT:    1740097  MISS:    2557288
L2C RFO       ACCESS:     800022  HIT:          1  MISS:     800021
L2C PREFETCH  ACCESS:    2003890  HIT:       2450  MISS:    2001440
L2C WRITEBACK ACCESS:    1549901  HIT:    1549624  MISS:        277
L2C PREFETCH  REQUESTED:    2550901  ISSUED:    2550901  USEFUL:    1740035  USELESS:     262439
L2C AVERAGE MISS LATENCY: 218.777 cycles
LLC TOTAL     ACCESS:    6908679  HIT:    1554901  MISS:    5353778
LLC LOAD      ACCESS:    2060704  HIT:       2972  MISS:    2057732
LLC RFO       ACCESS:     800021  HIT:        556  MISS:     799465
LLC PREFETCH  ACCESS:    2498058  HIT:       1494  MISS:    2496564
LLC WRITEBACK ACCESS:    1549896  HIT:    1549879  MISS:         17
LLC PREFETCH  REQUESTED:          0  ISSUED:          0  USEFUL:       2904  USELESS:    2507067
LLC AVERAGE MISS LATENCY: 206.426 cycles
Major fault: 0 Minor fault: 93932
CPU 0 L1I next line prefetcher final stats
CPU 0 L2C best offset prefetcher final stats

DRAM Statistics
 CHANNEL 0
 RQ ROW_BUFFER_HIT:    2382259  ROW_BUFFER_MISS:    2971479
 DBUS_CONGESTED:    1850436
 WQ ROW_BUFFER_HIT:     806492  ROW_BUFFER_MISS:     743398  FULL:          0

 AVG_CONGESTED_CYCLE: 6

CPU 0 Branch Prediction Accuracy: 79.9879% MPKI: 13.2782 Average ROB Occupancy at Mispredict: 63.4555

Branch types
NOT_BRANCH: 233411924 93.3648%
BRANCH_DIRECT_JUMP: 160015 0.064006%
BRANCH_INDIRECT: 0 0%
BRANCH_CONDITIONAL: 12308248 4.9233%
BRANCH_DIRECT_CALL: 2059732 0.823893%
BRANCH_INDIRECT_CALL: 0 0%
BRANCH_RETURN: 2059732 0.823893%
BRANCH_OTHER: 0 0%

