
*** ChampSim Multicore Out-of-Order Simulator ***

Warmup Instructions: 50000000
Simulation Instructions: 250000000
Number of CPUs: 1
LLC sets: 2048
LLC ways: 16
Off-chip DRAM Size: 4096 MB Channels: 1 Width: 64-bit Data Rate: 3200 MT/s

CPU 0 runs /home/wezelis2/ECE511_Project/ChampSim/dpc3_traces/456.hmmer-327B.champsimtrace.xz
CPU 0 Bimodal branch predictor
CPU 0 L1I next line prefetcher
Heartbeat CPU 0 instructions: 10000000 cycles: 4816816 heartbeat IPC: 2.07606 cumulative IPC: 2.07606 (Simulation time: 0 hr 0 min 35 sec) 
Heartbeat CPU 0 instructions: 20000003 cycles: 9629776 heartbeat IPC: 2.07772 cumulative IPC: 2.07689 (Simulation time: 0 hr 1 min 9 sec) 
Heartbeat CPU 0 instructions: 30000001 cycles: 14431297 heartbeat IPC: 2.08267 cumulative IPC: 2.07882 (Simulation time: 0 hr 1 min 43 sec) 
Heartbeat CPU 0 instructions: 40000002 cycles: 19240195 heartbeat IPC: 2.07948 cumulative IPC: 2.07898 (Simulation time: 0 hr 2 min 18 sec) 
Heartbeat CPU 0 instructions: 50000003 cycles: 24047199 heartbeat IPC: 2.0803 cumulative IPC: 2.07924 (Simulation time: 0 hr 2 min 52 sec) 

Warmup complete CPU 0 instructions: 50000003 cycles: 24047199 (Simulation time: 0 hr 2 min 52 sec) 

Heartbeat CPU 0 instructions: 60000000 cycles: 29820585 heartbeat IPC: 1.73209 cumulative IPC: 1.73209 (Simulation time: 0 hr 3 min 26 sec) 
Heartbeat CPU 0 instructions: 70000002 cycles: 35584619 heartbeat IPC: 1.7349 cumulative IPC: 1.73349 (Simulation time: 0 hr 3 min 59 sec) 
Heartbeat CPU 0 instructions: 80000002 cycles: 41354809 heartbeat IPC: 1.73305 cumulative IPC: 1.73334 (Simulation time: 0 hr 4 min 31 sec) 
Heartbeat CPU 0 instructions: 90000000 cycles: 47845433 heartbeat IPC: 1.54068 cumulative IPC: 1.6808 (Simulation time: 0 hr 5 min 5 sec) 
Heartbeat CPU 0 instructions: 100000003 cycles: 53888968 heartbeat IPC: 1.65466 cumulative IPC: 1.6755 (Simulation time: 0 hr 5 min 39 sec) 
Heartbeat CPU 0 instructions: 110000000 cycles: 59963883 heartbeat IPC: 1.64611 cumulative IPC: 1.67053 (Simulation time: 0 hr 6 min 14 sec) 
Heartbeat CPU 0 instructions: 120000000 cycles: 65777018 heartbeat IPC: 1.72024 cumulative IPC: 1.67746 (Simulation time: 0 hr 6 min 46 sec) 
Heartbeat CPU 0 instructions: 130000001 cycles: 71546485 heartbeat IPC: 1.73326 cumulative IPC: 1.68424 (Simulation time: 0 hr 7 min 19 sec) 
Heartbeat CPU 0 instructions: 140000001 cycles: 77406932 heartbeat IPC: 1.70635 cumulative IPC: 1.68667 (Simulation time: 0 hr 7 min 52 sec) 
Heartbeat CPU 0 instructions: 150000003 cycles: 83174089 heartbeat IPC: 1.73396 cumulative IPC: 1.69128 (Simulation time: 0 hr 8 min 25 sec) 
Heartbeat CPU 0 instructions: 160000001 cycles: 88942550 heartbeat IPC: 1.73356 cumulative IPC: 1.69504 (Simulation time: 0 hr 8 min 59 sec) 
Heartbeat CPU 0 instructions: 170000001 cycles: 94706611 heartbeat IPC: 1.73489 cumulative IPC: 1.69829 (Simulation time: 0 hr 9 min 32 sec) 
Heartbeat CPU 0 instructions: 180000000 cycles: 100552065 heartbeat IPC: 1.71073 cumulative IPC: 1.69924 (Simulation time: 0 hr 10 min 5 sec) 
Heartbeat CPU 0 instructions: 190000000 cycles: 106410569 heartbeat IPC: 1.70692 cumulative IPC: 1.69978 (Simulation time: 0 hr 10 min 38 sec) 
Heartbeat CPU 0 instructions: 200000002 cycles: 113797772 heartbeat IPC: 1.35369 cumulative IPC: 1.6713 (Simulation time: 0 hr 11 min 14 sec) 
Heartbeat CPU 0 instructions: 210000002 cycles: 121223877 heartbeat IPC: 1.3466 cumulative IPC: 1.64649 (Simulation time: 0 hr 11 min 51 sec) 
Heartbeat CPU 0 instructions: 220000000 cycles: 128896471 heartbeat IPC: 1.30334 cumulative IPC: 1.62138 (Simulation time: 0 hr 12 min 27 sec) 
Heartbeat CPU 0 instructions: 230000000 cycles: 136272804 heartbeat IPC: 1.35569 cumulative IPC: 1.60391 (Simulation time: 0 hr 13 min 3 sec) 
Heartbeat CPU 0 instructions: 240000003 cycles: 143747443 heartbeat IPC: 1.33786 cumulative IPC: 1.5873 (Simulation time: 0 hr 13 min 39 sec) 
Heartbeat CPU 0 instructions: 250000003 cycles: 151106426 heartbeat IPC: 1.35888 cumulative IPC: 1.57407 (Simulation time: 0 hr 14 min 16 sec) 
Heartbeat CPU 0 instructions: 260000002 cycles: 158541283 heartbeat IPC: 1.34502 cumulative IPC: 1.56141 (Simulation time: 0 hr 14 min 52 sec) 
Heartbeat CPU 0 instructions: 270000002 cycles: 166003333 heartbeat IPC: 1.34011 cumulative IPC: 1.54977 (Simulation time: 0 hr 15 min 28 sec) 
Heartbeat CPU 0 instructions: 280000002 cycles: 173355592 heartbeat IPC: 1.36013 cumulative IPC: 1.54044 (Simulation time: 0 hr 16 min 6 sec) 
Heartbeat CPU 0 instructions: 290000000 cycles: 180812795 heartbeat IPC: 1.34099 cumulative IPC: 1.53095 (Simulation time: 0 hr 16 min 43 sec) 
Heartbeat CPU 0 instructions: 300000000 cycles: 188181711 heartbeat IPC: 1.35705 cumulative IPC: 1.52314 (Simulation time: 0 hr 17 min 19 sec) 
Finished CPU 0 instructions: 250000001 cycles: 164134513 cumulative IPC: 1.52314 (Simulation time: 0 hr 17 min 19 sec) 

ChampSim completed all CPUs

Region of Interest Statistics

CPU 0 cumulative IPC: 1.52314 instructions: 250000001 cycles: 164134513
L1D TOTAL     ACCESS:   86185424  HIT:   85161221  MISS:    1024203
L1D LOAD      ACCESS:   71334291  HIT:   70975481  MISS:     358810
L1D RFO       ACCESS:   14851133  HIT:   14185740  MISS:     665393
L1D PREFETCH  ACCESS:          0  HIT:          0  MISS:          0
L1D WRITEBACK ACCESS:          0  HIT:          0  MISS:          0
L1D PREFETCH  REQUESTED:          0  ISSUED:          0  USEFUL:          0  USELESS:          0
L1D AVERAGE MISS LATENCY: 101.73 cycles
L1I TOTAL     ACCESS:   41277625  HIT:   41277617  MISS:          8
L1I LOAD      ACCESS:   41277621  HIT:   41277616  MISS:          5
L1I RFO       ACCESS:          0  HIT:          0  MISS:          0
L1I PREFETCH  ACCESS:          4  HIT:          1  MISS:          3
L1I WRITEBACK ACCESS:          0  HIT:          0  MISS:          0
L1I PREFETCH  REQUESTED:          6  ISSUED:          6  USEFUL:          2  USELESS:          1
L1I AVERAGE MISS LATENCY: 218.25 cycles
L2C TOTAL     ACCESS:    1690927  HIT:    1017597  MISS:     673330
L2C LOAD      ACCESS:     358815  HIT:     334471  MISS:      24344
L2C RFO       ACCESS:     665393  HIT:      16480  MISS:     648913
L2C PREFETCH  ACCESS:          7  HIT:          2  MISS:          5
L2C WRITEBACK ACCESS:     666712  HIT:     666644  MISS:         68
L2C PREFETCH  REQUESTED:          4  ISSUED:          4  USEFUL:          2  USELESS:          3
L2C AVERAGE MISS LATENCY: 131.888 cycles
LLC TOTAL     ACCESS:    1324295  HIT:    1003469  MISS:     320826
LLC LOAD      ACCESS:      24344  HIT:      17386  MISS:       6958
LLC RFO       ACCESS:     648913  HIT:     335071  MISS:     313842
LLC PREFETCH  ACCESS:          5  HIT:          2  MISS:          3
LLC WRITEBACK ACCESS:     651033  HIT:     651010  MISS:         23
LLC PREFETCH  REQUESTED:          0  ISSUED:          0  USEFUL:          1  USELESS:        230
LLC AVERAGE MISS LATENCY: 213.832 cycles
Major fault: 0 Minor fault: 2245
CPU 0 L1I next line prefetcher final stats
CPU 0 L2C best offset prefetcher final stats

DRAM Statistics
 CHANNEL 0
 RQ ROW_BUFFER_HIT:     189614  ROW_BUFFER_MISS:     131189
 DBUS_CONGESTED:       8502
 WQ ROW_BUFFER_HIT:      97983  ROW_BUFFER_MISS:     214966  FULL:          0

 AVG_CONGESTED_CYCLE: 6

CPU 0 Branch Prediction Accuracy: 99.402% MPKI: 0.264272 Average ROB Occupancy at Mispredict: 87.882

Branch types
NOT_BRANCH: 238951824 95.5807%
BRANCH_DIRECT_JUMP: 43649 0.0174596%
BRANCH_INDIRECT: 14325 0.00573%
BRANCH_CONDITIONAL: 10910018 4.36401%
BRANCH_DIRECT_CALL: 39823 0.0159292%
BRANCH_INDIRECT_CALL: 266 0.0001064%
BRANCH_RETURN: 40089 0.0160356%
BRANCH_OTHER: 0 0%

