
*** ChampSim Multicore Out-of-Order Simulator ***

Warmup Instructions: 50000000
Simulation Instructions: 250000000
Number of CPUs: 1
LLC sets: 2048
LLC ways: 16
Off-chip DRAM Size: 4096 MB Channels: 1 Width: 64-bit Data Rate: 3200 MT/s

CPU 0 runs /home/wezelis2/ECE511_Project/ChampSim/dpc3_traces/464.h264ref-64B.champsimtrace.xz
CPU 0 Bimodal branch predictor
CPU 0 L1I next line prefetcher
INIT BEST RECENT REQUEST TABLE MODULE
INIT DELAY QUEUE MODULE
INIT PREFETCH THROTTLE MODULE
INIT OFFSET SCORE MODULE
INIT BEST OFFSET PREFETCHER
OFFSET CHANGED FROM 1 TO 3
OFFSET CHANGED FROM 3 TO 2
OFFSET CHANGED FROM 2 TO 2
OFFSET CHANGED FROM 2 TO 1
OFFSET CHANGED FROM 1 TO 1
OFFSET CHANGED FROM 1 TO 1
OFFSET CHANGED FROM 1 TO 1
OFFSET CHANGED FROM 1 TO 7
OFFSET CHANGED FROM 7 TO 8
OFFSET CHANGED FROM 8 TO 6
OFFSET CHANGED FROM 6 TO 1
OFFSET CHANGED FROM 1 TO 1
OFFSET CHANGED FROM 1 TO 1
OFFSET CHANGED FROM 1 TO 11
OFFSET CHANGED FROM 11 TO 10
OFFSET CHANGED FROM 10 TO 1
OFFSET CHANGED FROM 1 TO 1
Heartbeat CPU 0 instructions: 10000003 cycles: 3790450 heartbeat IPC: 2.63821 cumulative IPC: 2.63821 (Simulation time: 0 hr 0 min 24 sec) 
OFFSET CHANGED FROM 1 TO 1
OFFSET CHANGED FROM 1 TO 2
OFFSET CHANGED FROM 2 TO 2
OFFSET CHANGED FROM 2 TO 1
OFFSET CHANGED FROM 1 TO 1
OFFSET CHANGED FROM 1 TO 3
OFFSET CHANGED FROM 3 TO 2
OFFSET CHANGED FROM 2 TO 3
Heartbeat CPU 0 instructions: 20000002 cycles: 7709021 heartbeat IPC: 2.55195 cumulative IPC: 2.59436 (Simulation time: 0 hr 0 min 50 sec) 
OFFSET CHANGED FROM 3 TO 3
OFFSET CHANGED FROM 3 TO 2
OFFSET CHANGED FROM 2 TO 7
OFFSET CHANGED FROM 7 TO 2
OFFSET CHANGED FROM 2 TO 3
Heartbeat CPU 0 instructions: 30000001 cycles: 11886643 heartbeat IPC: 2.39371 cumulative IPC: 2.52384 (Simulation time: 0 hr 1 min 17 sec) 
OFFSET CHANGED FROM 3 TO 3
OFFSET CHANGED FROM 3 TO 3
OFFSET CHANGED FROM 3 TO 5
OFFSET CHANGED FROM 5 TO 3
OFFSET CHANGED FROM 3 TO 3
Heartbeat CPU 0 instructions: 40000002 cycles: 16070347 heartbeat IPC: 2.39023 cumulative IPC: 2.48906 (Simulation time: 0 hr 1 min 43 sec) 
OFFSET CHANGED FROM 3 TO 3
OFFSET CHANGED FROM 3 TO 3
OFFSET CHANGED FROM 3 TO 3
OFFSET CHANGED FROM 3 TO 3
OFFSET CHANGED FROM 3 TO 3
OFFSET CHANGED FROM 3 TO 2
Heartbeat CPU 0 instructions: 50000000 cycles: 20251966 heartbeat IPC: 2.39142 cumulative IPC: 2.4689 (Simulation time: 0 hr 2 min 9 sec) 

Warmup complete CPU 0 instructions: 50000004 cycles: 20251967 (Simulation time: 0 hr 2 min 9 sec) 

OFFSET CHANGED FROM 2 TO 2
OFFSET CHANGED FROM 2 TO 2
OFFSET CHANGED FROM 2 TO 1
OFFSET CHANGED FROM 1 TO 1
OFFSET CHANGED FROM 1 TO 1
OFFSET CHANGED FROM 1 TO 1
OFFSET CHANGED FROM 1 TO 1
OFFSET CHANGED FROM 1 TO 1
OFFSET CHANGED FROM 1 TO 1
OFFSET CHANGED FROM 1 TO 1
OFFSET CHANGED FROM 1 TO 1
OFFSET CHANGED FROM 1 TO 2
OFFSET CHANGED FROM 2 TO 2
Heartbeat CPU 0 instructions: 60000000 cycles: 27884420 heartbeat IPC: 1.31019 cumulative IPC: 1.31019 (Simulation time: 0 hr 2 min 30 sec) 
OFFSET CHANGED FROM 2 TO 1
OFFSET CHANGED FROM 1 TO 9
OFFSET CHANGED FROM 9 TO 1
OFFSET CHANGED FROM 1 TO 1
OFFSET CHANGED FROM 1 TO 4
OFFSET CHANGED FROM 4 TO 6
OFFSET CHANGED FROM 6 TO 15
OFFSET CHANGED FROM 15 TO 1
OFFSET CHANGED FROM 1 TO 6
OFFSET CHANGED FROM 6 TO 1
OFFSET CHANGED FROM 1 TO 3
PREFETCHING INTO L2 w/ PREFETCH SCORE 31 (MSHR OCC = 30)
PREFETCHING INTO L2 w/ PREFETCH SCORE 31 (MSHR OCC = 28)
PREFETCHING INTO L2 w/ PREFETCH SCORE 31 (MSHR OCC = 29)
OFFSET CHANGED FROM 3 TO 2
Heartbeat CPU 0 instructions: 70000001 cycles: 36788485 heartbeat IPC: 1.12308 cumulative IPC: 1.20944 (Simulation time: 0 hr 2 min 52 sec) 
OFFSET CHANGED FROM 2 TO 1
OFFSET CHANGED FROM 1 TO 2
OFFSET CHANGED FROM 2 TO 2
OFFSET CHANGED FROM 2 TO 1
OFFSET CHANGED FROM 1 TO 1
OFFSET CHANGED FROM 1 TO 1
OFFSET CHANGED FROM 1 TO 1
OFFSET CHANGED FROM 1 TO 1
OFFSET CHANGED FROM 1 TO 2
Heartbeat CPU 0 instructions: 80000003 cycles: 43984721 heartbeat IPC: 1.38962 cumulative IPC: 1.26408 (Simulation time: 0 hr 3 min 17 sec) 
OFFSET CHANGED FROM 2 TO 2
OFFSET CHANGED FROM 2 TO 2
OFFSET CHANGED FROM 2 TO 1
OFFSET CHANGED FROM 1 TO 2
OFFSET CHANGED FROM 2 TO 1
OFFSET CHANGED FROM 1 TO 2
OFFSET CHANGED FROM 2 TO 1
OFFSET CHANGED FROM 1 TO 2
Heartbeat CPU 0 instructions: 90000003 cycles: 51173438 heartbeat IPC: 1.39107 cumulative IPC: 1.2936 (Simulation time: 0 hr 3 min 42 sec) 
OFFSET CHANGED FROM 2 TO 1
OFFSET CHANGED FROM 1 TO 1
OFFSET CHANGED FROM 1 TO 1
OFFSET CHANGED FROM 1 TO 1
OFFSET CHANGED FROM 1 TO 1
OFFSET CHANGED FROM 1 TO 1
OFFSET CHANGED FROM 1 TO 3
OFFSET CHANGED FROM 3 TO 2
OFFSET CHANGED FROM 2 TO 10
OFFSET CHANGED FROM 10 TO 1
OFFSET CHANGED FROM 1 TO 1
OFFSET CHANGED FROM 1 TO 1
OFFSET CHANGED FROM 1 TO 3
OFFSET CHANGED FROM 3 TO 9
OFFSET CHANGED FROM 9 TO 1
OFFSET CHANGED FROM 1 TO 1
OFFSET CHANGED FROM 1 TO 1
OFFSET CHANGED FROM 1 TO 1
Heartbeat CPU 0 instructions: 100000001 cycles: 59458184 heartbeat IPC: 1.20704 cumulative IPC: 1.27531 (Simulation time: 0 hr 4 min 5 sec) 
OFFSET CHANGED FROM 1 TO 2
OFFSET CHANGED FROM 2 TO 1
OFFSET CHANGED FROM 1 TO 3
OFFSET CHANGED FROM 3 TO 3
OFFSET CHANGED FROM 3 TO 1
OFFSET CHANGED FROM 1 TO 1
Heartbeat CPU 0 instructions: 110000000 cycles: 68531551 heartbeat IPC: 1.10213 cumulative IPC: 1.24276 (Simulation time: 0 hr 4 min 28 sec) 
OFFSET CHANGED FROM 1 TO 2
OFFSET CHANGED FROM 2 TO 1
OFFSET CHANGED FROM 1 TO 2
OFFSET CHANGED FROM 2 TO 1
OFFSET CHANGED FROM 1 TO 1
OFFSET CHANGED FROM 1 TO 1
OFFSET CHANGED FROM 1 TO 1
OFFSET CHANGED FROM 1 TO 1
OFFSET CHANGED FROM 1 TO 2
OFFSET CHANGED FROM 2 TO 1
Heartbeat CPU 0 instructions: 120000001 cycles: 75723085 heartbeat IPC: 1.39052 cumulative IPC: 1.26192 (Simulation time: 0 hr 4 min 53 sec) 
OFFSET CHANGED FROM 1 TO 1
OFFSET CHANGED FROM 1 TO 1
OFFSET CHANGED FROM 1 TO 1
OFFSET CHANGED FROM 1 TO 1
OFFSET CHANGED FROM 1 TO 1
OFFSET CHANGED FROM 1 TO 1
OFFSET CHANGED FROM 1 TO 1
OFFSET CHANGED FROM 1 TO 2
OFFSET CHANGED FROM 2 TO 1
OFFSET CHANGED FROM 1 TO 1
Heartbeat CPU 0 instructions: 130000001 cycles: 82909181 heartbeat IPC: 1.39158 cumulative IPC: 1.27679 (Simulation time: 0 hr 5 min 18 sec) 
OFFSET CHANGED FROM 1 TO 1
OFFSET CHANGED FROM 1 TO 1
OFFSET CHANGED FROM 1 TO 1
OFFSET CHANGED FROM 1 TO 3
OFFSET CHANGED FROM 3 TO 1
OFFSET CHANGED FROM 1 TO 1
OFFSET CHANGED FROM 1 TO 14
OFFSET CHANGED FROM 14 TO 16
OFFSET CHANGED FROM 16 TO 2
OFFSET CHANGED FROM 2 TO 1
OFFSET CHANGED FROM 1 TO 4
OFFSET CHANGED FROM 4 TO 8
OFFSET CHANGED FROM 8 TO 1
Heartbeat CPU 0 instructions: 140000000 cycles: 91495011 heartbeat IPC: 1.16471 cumulative IPC: 1.26328 (Simulation time: 0 hr 5 min 41 sec) 
OFFSET CHANGED FROM 1 TO 1
OFFSET CHANGED FROM 1 TO 11
OFFSET CHANGED FROM 11 TO 11
OFFSET CHANGED FROM 11 TO 1
OFFSET CHANGED FROM 1 TO 1
OFFSET CHANGED FROM 1 TO 1
OFFSET CHANGED FROM 1 TO 3
OFFSET CHANGED FROM 3 TO 4
Heartbeat CPU 0 instructions: 150000000 cycles: 100701572 heartbeat IPC: 1.08618 cumulative IPC: 1.24301 (Simulation time: 0 hr 6 min 4 sec) 
OFFSET CHANGED FROM 4 TO 1
OFFSET CHANGED FROM 1 TO 2
OFFSET CHANGED FROM 2 TO 1
OFFSET CHANGED FROM 1 TO 1
OFFSET CHANGED FROM 1 TO 1
OFFSET CHANGED FROM 1 TO 1
OFFSET CHANGED FROM 1 TO 1
OFFSET CHANGED FROM 1 TO 1
OFFSET CHANGED FROM 1 TO 2
Heartbeat CPU 0 instructions: 160000002 cycles: 107906225 heartbeat IPC: 1.38799 cumulative IPC: 1.25493 (Simulation time: 0 hr 6 min 30 sec) 
OFFSET CHANGED FROM 2 TO 1
OFFSET CHANGED FROM 1 TO 2
OFFSET CHANGED FROM 2 TO 1
OFFSET CHANGED FROM 1 TO 2
OFFSET CHANGED FROM 2 TO 1
OFFSET CHANGED FROM 1 TO 1
OFFSET CHANGED FROM 1 TO 1
OFFSET CHANGED FROM 1 TO 1
OFFSET CHANGED FROM 1 TO 1
Heartbeat CPU 0 instructions: 170000000 cycles: 115097225 heartbeat IPC: 1.39063 cumulative IPC: 1.26522 (Simulation time: 0 hr 6 min 55 sec) 
OFFSET CHANGED FROM 1 TO 2
OFFSET CHANGED FROM 2 TO 1
OFFSET CHANGED FROM 1 TO 1
OFFSET CHANGED FROM 1 TO 1
OFFSET CHANGED FROM 1 TO 1
OFFSET CHANGED FROM 1 TO 1
OFFSET CHANGED FROM 1 TO 1
OFFSET CHANGED FROM 1 TO 2
OFFSET CHANGED FROM 2 TO 4
OFFSET CHANGED FROM 4 TO 1
OFFSET CHANGED FROM 1 TO 1
OFFSET CHANGED FROM 1 TO 2
OFFSET CHANGED FROM 2 TO 2
OFFSET CHANGED FROM 2 TO 2
OFFSET CHANGED FROM 2 TO 1
OFFSET CHANGED FROM 1 TO 1
Heartbeat CPU 0 instructions: 180000000 cycles: 123693009 heartbeat IPC: 1.16336 cumulative IPC: 1.25675 (Simulation time: 0 hr 7 min 18 sec) 
OFFSET CHANGED FROM 1 TO 1
OFFSET CHANGED FROM 1 TO 12
OFFSET CHANGED FROM 12 TO 13
OFFSET CHANGED FROM 13 TO 1
OFFSET CHANGED FROM 1 TO 2
OFFSET CHANGED FROM 2 TO 2
OFFSET CHANGED FROM 2 TO 1
OFFSET CHANGED FROM 1 TO 5
Heartbeat CPU 0 instructions: 190000000 cycles: 133186764 heartbeat IPC: 1.05332 cumulative IPC: 1.23965 (Simulation time: 0 hr 7 min 40 sec) 
OFFSET CHANGED FROM 5 TO 2
OFFSET CHANGED FROM 2 TO 1
OFFSET CHANGED FROM 1 TO 2
OFFSET CHANGED FROM 2 TO 2
OFFSET CHANGED FROM 2 TO 1
OFFSET CHANGED FROM 1 TO 2
OFFSET CHANGED FROM 2 TO 1
OFFSET CHANGED FROM 1 TO 1
OFFSET CHANGED FROM 1 TO 1
Heartbeat CPU 0 instructions: 200000001 cycles: 140380271 heartbeat IPC: 1.39014 cumulative IPC: 1.24866 (Simulation time: 0 hr 8 min 6 sec) 
OFFSET CHANGED FROM 1 TO 1
OFFSET CHANGED FROM 1 TO 1
OFFSET CHANGED FROM 1 TO 1
OFFSET CHANGED FROM 1 TO 1
OFFSET CHANGED FROM 1 TO 2
OFFSET CHANGED FROM 2 TO 1
OFFSET CHANGED FROM 1 TO 2
OFFSET CHANGED FROM 2 TO 2
OFFSET CHANGED FROM 2 TO 2
Heartbeat CPU 0 instructions: 210000003 cycles: 147615917 heartbeat IPC: 1.38205 cumulative IPC: 1.25624 (Simulation time: 0 hr 8 min 32 sec) 
OFFSET CHANGED FROM 2 TO 1
OFFSET CHANGED FROM 1 TO 1
OFFSET CHANGED FROM 1 TO 1
OFFSET CHANGED FROM 1 TO 1
OFFSET CHANGED FROM 1 TO 1
OFFSET CHANGED FROM 1 TO 1
OFFSET CHANGED FROM 1 TO 4
OFFSET CHANGED FROM 4 TO 1
OFFSET CHANGED FROM 1 TO 1
OFFSET CHANGED FROM 1 TO 1
OFFSET CHANGED FROM 1 TO 2
OFFSET CHANGED FROM 2 TO 1
OFFSET CHANGED FROM 1 TO 1
OFFSET CHANGED FROM 1 TO 7
Heartbeat CPU 0 instructions: 220000000 cycles: 156299223 heartbeat IPC: 1.15163 cumulative IPC: 1.24957 (Simulation time: 0 hr 8 min 56 sec) 
OFFSET CHANGED FROM 7 TO 2
OFFSET CHANGED FROM 2 TO 1
OFFSET CHANGED FROM 1 TO 4
OFFSET CHANGED FROM 4 TO 1
OFFSET CHANGED FROM 1 TO 3
OFFSET CHANGED FROM 3 TO 1
OFFSET CHANGED FROM 1 TO 1
OFFSET CHANGED FROM 1 TO 2
OFFSET CHANGED FROM 2 TO 3
OFFSET CHANGED FROM 3 TO 1
OFFSET CHANGED FROM 1 TO 2
Heartbeat CPU 0 instructions: 230000002 cycles: 165873350 heartbeat IPC: 1.04448 cumulative IPC: 1.23608 (Simulation time: 0 hr 9 min 18 sec) 
OFFSET CHANGED FROM 2 TO 3
OFFSET CHANGED FROM 3 TO 2
OFFSET CHANGED FROM 2 TO 2
OFFSET CHANGED FROM 2 TO 2
OFFSET CHANGED FROM 2 TO 2
OFFSET CHANGED FROM 2 TO 2
OFFSET CHANGED FROM 2 TO 1
Heartbeat CPU 0 instructions: 240000002 cycles: 173375119 heartbeat IPC: 1.33302 cumulative IPC: 1.24083 (Simulation time: 0 hr 9 min 43 sec) 
OFFSET CHANGED FROM 1 TO 2
OFFSET CHANGED FROM 2 TO 1
OFFSET CHANGED FROM 1 TO 1
OFFSET CHANGED FROM 1 TO 1
OFFSET CHANGED FROM 1 TO 1
OFFSET CHANGED FROM 1 TO 2
OFFSET CHANGED FROM 2 TO 1
OFFSET CHANGED FROM 1 TO 1
Heartbeat CPU 0 instructions: 250000003 cycles: 180546750 heartbeat IPC: 1.39438 cumulative IPC: 1.2477 (Simulation time: 0 hr 10 min 9 sec) 
OFFSET CHANGED FROM 1 TO 1
OFFSET CHANGED FROM 1 TO 2
OFFSET CHANGED FROM 2 TO 2
OFFSET CHANGED FROM 2 TO 2
OFFSET CHANGED FROM 2 TO 2
OFFSET CHANGED FROM 2 TO 1
OFFSET CHANGED FROM 1 TO 1
OFFSET CHANGED FROM 1 TO 1
OFFSET CHANGED FROM 1 TO 1
OFFSET CHANGED FROM 1 TO 1
OFFSET CHANGED FROM 1 TO 2
OFFSET CHANGED FROM 2 TO 2
OFFSET CHANGED FROM 2 TO 1
Heartbeat CPU 0 instructions: 260000000 cycles: 188735632 heartbeat IPC: 1.22117 cumulative IPC: 1.24641 (Simulation time: 0 hr 10 min 33 sec) 
OFFSET CHANGED FROM 1 TO 1
OFFSET CHANGED FROM 1 TO 1
OFFSET CHANGED FROM 1 TO 1
OFFSET CHANGED FROM 1 TO 3
OFFSET CHANGED FROM 3 TO 2
OFFSET CHANGED FROM 2 TO 1
OFFSET CHANGED FROM 1 TO 3
OFFSET CHANGED FROM 3 TO 8
OFFSET CHANGED FROM 8 TO 5
OFFSET CHANGED FROM 5 TO 4
OFFSET CHANGED FROM 4 TO 2
OFFSET CHANGED FROM 2 TO 1
OFFSET CHANGED FROM 1 TO 1
OFFSET CHANGED FROM 1 TO 2
Heartbeat CPU 0 instructions: 270000002 cycles: 198255623 heartbeat IPC: 1.05042 cumulative IPC: 1.23593 (Simulation time: 0 hr 10 min 55 sec) 
OFFSET CHANGED FROM 2 TO 5
OFFSET CHANGED FROM 5 TO 2
OFFSET CHANGED FROM 2 TO 2
OFFSET CHANGED FROM 2 TO 2
OFFSET CHANGED FROM 2 TO 1
OFFSET CHANGED FROM 1 TO 1
Heartbeat CPU 0 instructions: 280000002 cycles: 206147222 heartbeat IPC: 1.26717 cumulative IPC: 1.23726 (Simulation time: 0 hr 11 min 20 sec) 
OFFSET CHANGED FROM 1 TO 1
OFFSET CHANGED FROM 1 TO 2
OFFSET CHANGED FROM 2 TO 2
OFFSET CHANGED FROM 2 TO 1
OFFSET CHANGED FROM 1 TO 1
OFFSET CHANGED FROM 1 TO 1
OFFSET CHANGED FROM 1 TO 2
OFFSET CHANGED FROM 2 TO 1
OFFSET CHANGED FROM 1 TO 1
Heartbeat CPU 0 instructions: 290000001 cycles: 213350520 heartbeat IPC: 1.38825 cumulative IPC: 1.24289 (Simulation time: 0 hr 11 min 46 sec) 
OFFSET CHANGED FROM 1 TO 1
OFFSET CHANGED FROM 1 TO 1
OFFSET CHANGED FROM 1 TO 2
OFFSET CHANGED FROM 2 TO 2
OFFSET CHANGED FROM 2 TO 1
OFFSET CHANGED FROM 1 TO 1
OFFSET CHANGED FROM 1 TO 1
OFFSET CHANGED FROM 1 TO 1
OFFSET CHANGED FROM 1 TO 1
OFFSET CHANGED FROM 1 TO 1
Heartbeat CPU 0 instructions: 300000000 cycles: 221299246 heartbeat IPC: 1.25806 cumulative IPC: 1.24349 (Simulation time: 0 hr 12 min 10 sec) 
Finished CPU 0 instructions: 250000002 cycles: 201047282 cumulative IPC: 1.24349 (Simulation time: 0 hr 12 min 10 sec) 

ChampSim completed all CPUs

Region of Interest Statistics

CPU 0 cumulative IPC: 1.24349 instructions: 250000002 cycles: 201047282
L1D TOTAL     ACCESS:   73316699  HIT:   72597393  MISS:     719306
L1D LOAD      ACCESS:   56147690  HIT:   55624435  MISS:     523255
L1D RFO       ACCESS:   17169009  HIT:   16972958  MISS:     196051
L1D PREFETCH  ACCESS:          0  HIT:          0  MISS:          0
L1D WRITEBACK ACCESS:          0  HIT:          0  MISS:          0
L1D PREFETCH  REQUESTED:          0  ISSUED:          0  USEFUL:          0  USELESS:          0
L1D AVERAGE MISS LATENCY: 53.6075 cycles
L1I TOTAL     ACCESS:   43171776  HIT:   43150236  MISS:      21540
L1I LOAD      ACCESS:   43161591  HIT:   43147040  MISS:      14551
L1I RFO       ACCESS:          0  HIT:          0  MISS:          0
L1I PREFETCH  ACCESS:      10185  HIT:       3196  MISS:       6989
L1I WRITEBACK ACCESS:          0  HIT:          0  MISS:          0
L1I PREFETCH  REQUESTED:      19625  ISSUED:      19625  USEFUL:       5134  USELESS:       1848
L1I AVERAGE MISS LATENCY: 56.5399 cycles
L2C TOTAL     ACCESS:    1430290  HIT:     944443  MISS:     485847
L2C LOAD      ACCESS:     534996  HIT:     448280  MISS:      86716
L2C RFO       ACCESS:     196050  HIT:      14802  MISS:     181248
L2C PREFETCH  ACCESS:     497841  HIT:     280250  MISS:     217591
L2C WRITEBACK ACCESS:     201403  HIT:     201111  MISS:        292
L2C PREFETCH  REQUESTED:     526362  ISSUED:     526362  USEFUL:     156517  USELESS:      60892
L2C AVERAGE MISS LATENCY: 97.7975 cycles
LLC TOTAL     ACCESS:     677241  HIT:     453506  MISS:     223735
LLC LOAD      ACCESS:      55823  HIT:      30644  MISS:      25179
LLC RFO       ACCESS:     180951  HIT:      90979  MISS:      89972
LLC PREFETCH  ACCESS:     248783  HIT:     140724  MISS:     108059
LLC WRITEBACK ACCESS:     191684  HIT:     191159  MISS:        525
LLC PREFETCH  REQUESTED:          0  ISSUED:          0  USEFUL:      47860  USELESS:      59651
LLC AVERAGE MISS LATENCY: 160.504 cycles
Major fault: 0 Minor fault: 1545
CPU 0 L1I next line prefetcher final stats
CPU 0 L2C best offset prefetcher final stats

DRAM Statistics
 CHANNEL 0
 RQ ROW_BUFFER_HIT:      36976  ROW_BUFFER_MISS:     186228
 DBUS_CONGESTED:      72663
 WQ ROW_BUFFER_HIT:      30754  ROW_BUFFER_MISS:     107985  FULL:          0

 AVG_CONGESTED_CYCLE: 6

CPU 0 Branch Prediction Accuracy: 95.1795% MPKI: 4.31204 Average ROB Occupancy at Mispredict: 87.7747

Branch types
NOT_BRANCH: 227636507 91.0546%
BRANCH_DIRECT_JUMP: 1314835 0.525934%
BRANCH_INDIRECT: 4198 0.0016792%
BRANCH_CONDITIONAL: 14812811 5.92512%
BRANCH_DIRECT_CALL: 3113542 1.24542%
BRANCH_INDIRECT_CALL: 2114 0.0008456%
BRANCH_RETURN: 3115657 1.24626%
BRANCH_OTHER: 0 0%

