
*** ChampSim Multicore Out-of-Order Simulator ***

Warmup Instructions: 50000000
Simulation Instructions: 250000000
Number of CPUs: 1
LLC sets: 2048
LLC ways: 16
Off-chip DRAM Size: 4096 MB Channels: 1 Width: 64-bit Data Rate: 3200 MT/s

CPU 0 runs /home/wezelis2/ECE511_Project/ChampSim/dpc3_traces/641.leela_s-334B.champsimtrace.xz
CPU 0 Bimodal branch predictor
CPU 0 L1I next line prefetcher
INIT BEST RECENT REQUEST TABLE MODULE
INIT DELAY QUEUE MODULE
INIT PREFETCH THROTTLE MODULE
INIT OFFSET SCORE MODULE
INIT BEST OFFSET PREFETCHER
OFFSET CHANGED FROM 1 TO 4
OFFSET CHANGED FROM 4 TO 4
OFFSET CHANGED FROM 4 TO 4
Heartbeat CPU 0 instructions: 10000002 cycles: 4538237 heartbeat IPC: 2.2035 cumulative IPC: 2.2035 (Simulation time: 0 hr 0 min 27 sec) 
OFFSET CHANGED FROM 4 TO 4
OFFSET CHANGED FROM 4 TO -5
OFFSET CHANGED FROM -5 TO 5
OFFSET CHANGED FROM 5 TO -6
Heartbeat CPU 0 instructions: 20000002 cycles: 9095149 heartbeat IPC: 2.19447 cumulative IPC: 2.19897 (Simulation time: 0 hr 0 min 54 sec) 
OFFSET CHANGED FROM -6 TO 4
OFFSET CHANGED FROM 4 TO 5
OFFSET CHANGED FROM 5 TO 6
OFFSET CHANGED FROM 6 TO -6
Heartbeat CPU 0 instructions: 30000001 cycles: 13631297 heartbeat IPC: 2.20451 cumulative IPC: 2.20082 (Simulation time: 0 hr 1 min 21 sec) 
OFFSET CHANGED FROM -6 TO -4
OFFSET CHANGED FROM -4 TO 4
OFFSET CHANGED FROM 4 TO 4
OFFSET CHANGED FROM 4 TO 4
Heartbeat CPU 0 instructions: 40000001 cycles: 18146763 heartbeat IPC: 2.21461 cumulative IPC: 2.20425 (Simulation time: 0 hr 1 min 47 sec) 
OFFSET CHANGED FROM 4 TO -7
OFFSET CHANGED FROM -7 TO 4
OFFSET CHANGED FROM 4 TO 4
Heartbeat CPU 0 instructions: 50000002 cycles: 22701203 heartbeat IPC: 2.19566 cumulative IPC: 2.20253 (Simulation time: 0 hr 2 min 14 sec) 

Warmup complete CPU 0 instructions: 50000002 cycles: 22701203 (Simulation time: 0 hr 2 min 14 sec) 

OFFSET CHANGED FROM 4 TO 4
OFFSET CHANGED FROM 4 TO 2
OFFSET CHANGED FROM 2 TO 3
OFFSET CHANGED FROM 3 TO 3
Heartbeat CPU 0 instructions: 60000003 cycles: 36007853 heartbeat IPC: 0.751504 cumulative IPC: 0.751504 (Simulation time: 0 hr 2 min 34 sec) 
OFFSET CHANGED FROM 3 TO 4
OFFSET CHANGED FROM 4 TO 4
OFFSET CHANGED FROM 4 TO 2
OFFSET CHANGED FROM 2 TO 4
Heartbeat CPU 0 instructions: 70000000 cycles: 49272642 heartbeat IPC: 0.753875 cumulative IPC: 0.752688 (Simulation time: 0 hr 2 min 54 sec) 
OFFSET CHANGED FROM 4 TO 4
OFFSET CHANGED FROM 4 TO -6
OFFSET CHANGED FROM -6 TO 5
OFFSET CHANGED FROM 5 TO 3
Heartbeat CPU 0 instructions: 80000001 cycles: 62595917 heartbeat IPC: 0.750566 cumulative IPC: 0.751979 (Simulation time: 0 hr 3 min 13 sec) 
OFFSET CHANGED FROM 3 TO 4
OFFSET CHANGED FROM 4 TO 3
OFFSET CHANGED FROM 3 TO 3
OFFSET CHANGED FROM 3 TO 3
Heartbeat CPU 0 instructions: 90000001 cycles: 75915744 heartbeat IPC: 0.75076 cumulative IPC: 0.751674 (Simulation time: 0 hr 3 min 34 sec) 
OFFSET CHANGED FROM 3 TO 2
OFFSET CHANGED FROM 2 TO -4
OFFSET CHANGED FROM -4 TO 4
Heartbeat CPU 0 instructions: 100000000 cycles: 89408603 heartbeat IPC: 0.741133 cumulative IPC: 0.749542 (Simulation time: 0 hr 3 min 52 sec) 
OFFSET CHANGED FROM 4 TO 3
OFFSET CHANGED FROM 3 TO 4
OFFSET CHANGED FROM 4 TO 4
Heartbeat CPU 0 instructions: 110000000 cycles: 102949382 heartbeat IPC: 0.73851 cumulative IPC: 0.74768 (Simulation time: 0 hr 4 min 12 sec) 
OFFSET CHANGED FROM 4 TO 4
OFFSET CHANGED FROM 4 TO 4
OFFSET CHANGED FROM 4 TO 3
Heartbeat CPU 0 instructions: 120000000 cycles: 116358982 heartbeat IPC: 0.745734 cumulative IPC: 0.747402 (Simulation time: 0 hr 4 min 31 sec) 
OFFSET CHANGED FROM 3 TO 1
OFFSET CHANGED FROM 1 TO 3
OFFSET CHANGED FROM 3 TO 4
Heartbeat CPU 0 instructions: 130000000 cycles: 129826019 heartbeat IPC: 0.742554 cumulative IPC: 0.746792 (Simulation time: 0 hr 4 min 51 sec) 
OFFSET CHANGED FROM 4 TO 1
OFFSET CHANGED FROM 1 TO 4
OFFSET CHANGED FROM 4 TO 4
Heartbeat CPU 0 instructions: 140000001 cycles: 143144110 heartbeat IPC: 0.750858 cumulative IPC: 0.747242 (Simulation time: 0 hr 5 min 10 sec) 
OFFSET CHANGED FROM 4 TO 5
OFFSET CHANGED FROM 5 TO 4
OFFSET CHANGED FROM 4 TO 3
Heartbeat CPU 0 instructions: 150000000 cycles: 156333999 heartbeat IPC: 0.758156 cumulative IPC: 0.748319 (Simulation time: 0 hr 5 min 30 sec) 
OFFSET CHANGED FROM 3 TO 5
OFFSET CHANGED FROM 5 TO 4
OFFSET CHANGED FROM 4 TO 2
OFFSET CHANGED FROM 2 TO 4
Heartbeat CPU 0 instructions: 160000001 cycles: 169646451 heartbeat IPC: 0.751176 cumulative IPC: 0.748578 (Simulation time: 0 hr 5 min 49 sec) 
OFFSET CHANGED FROM 4 TO 3
OFFSET CHANGED FROM 3 TO 5
OFFSET CHANGED FROM 5 TO 2
Heartbeat CPU 0 instructions: 170000000 cycles: 183085047 heartbeat IPC: 0.744125 cumulative IPC: 0.748205 (Simulation time: 0 hr 6 min 9 sec) 
OFFSET CHANGED FROM 2 TO 4
OFFSET CHANGED FROM 4 TO 5
OFFSET CHANGED FROM 5 TO 5
Heartbeat CPU 0 instructions: 180000000 cycles: 196480581 heartbeat IPC: 0.746517 cumulative IPC: 0.748075 (Simulation time: 0 hr 6 min 28 sec) 
OFFSET CHANGED FROM 5 TO 3
OFFSET CHANGED FROM 3 TO 1
OFFSET CHANGED FROM 1 TO 4
OFFSET CHANGED FROM 4 TO 3
OFFSET CHANGED FROM 3 TO 5
Heartbeat CPU 0 instructions: 190000003 cycles: 209793530 heartbeat IPC: 0.751149 cumulative IPC: 0.748294 (Simulation time: 0 hr 6 min 48 sec) 
OFFSET CHANGED FROM 5 TO 3
OFFSET CHANGED FROM 3 TO -3
OFFSET CHANGED FROM -3 TO 2
OFFSET CHANGED FROM 2 TO 3
OFFSET CHANGED FROM 3 TO 7
OFFSET CHANGED FROM 7 TO 9
OFFSET CHANGED FROM 9 TO 13
OFFSET CHANGED FROM 13 TO 11
Heartbeat CPU 0 instructions: 200000000 cycles: 223674680 heartbeat IPC: 0.720401 cumulative IPC: 0.746367 (Simulation time: 0 hr 7 min 9 sec) 
OFFSET CHANGED FROM 11 TO 11
OFFSET CHANGED FROM 11 TO 6
OFFSET CHANGED FROM 6 TO 5
OFFSET CHANGED FROM 5 TO 9
OFFSET CHANGED FROM 9 TO 7
OFFSET CHANGED FROM 7 TO 4
OFFSET CHANGED FROM 4 TO 4
OFFSET CHANGED FROM 4 TO 10
OFFSET CHANGED FROM 10 TO 4
OFFSET CHANGED FROM 4 TO -5
OFFSET CHANGED FROM -5 TO 3
OFFSET CHANGED FROM 3 TO -4
OFFSET CHANGED FROM -4 TO 4
Heartbeat CPU 0 instructions: 210000002 cycles: 238163029 heartbeat IPC: 0.69021 cumulative IPC: 0.742591 (Simulation time: 0 hr 7 min 31 sec) 
OFFSET CHANGED FROM 4 TO 4
OFFSET CHANGED FROM 4 TO 5
OFFSET CHANGED FROM 5 TO 4
OFFSET CHANGED FROM 4 TO 4
Heartbeat CPU 0 instructions: 220000000 cycles: 251524919 heartbeat IPC: 0.748397 cumulative IPC: 0.74293 (Simulation time: 0 hr 7 min 51 sec) 
OFFSET CHANGED FROM 4 TO 3
OFFSET CHANGED FROM 3 TO 3
OFFSET CHANGED FROM 3 TO 4
Heartbeat CPU 0 instructions: 230000002 cycles: 265124025 heartbeat IPC: 0.735343 cumulative IPC: 0.742504 (Simulation time: 0 hr 8 min 10 sec) 
OFFSET CHANGED FROM 4 TO 4
OFFSET CHANGED FROM 4 TO 3
Heartbeat CPU 0 instructions: 240000001 cycles: 278780999 heartbeat IPC: 0.732227 cumulative IPC: 0.741956 (Simulation time: 0 hr 8 min 30 sec) 
OFFSET CHANGED FROM 3 TO 2
OFFSET CHANGED FROM 2 TO 4
OFFSET CHANGED FROM 4 TO 4
Heartbeat CPU 0 instructions: 250000002 cycles: 292330272 heartbeat IPC: 0.738047 cumulative IPC: 0.74176 (Simulation time: 0 hr 8 min 50 sec) 
OFFSET CHANGED FROM 4 TO 5
OFFSET CHANGED FROM 5 TO 4
OFFSET CHANGED FROM 4 TO 4
OFFSET CHANGED FROM 4 TO 4
OFFSET CHANGED FROM 4 TO 5
Heartbeat CPU 0 instructions: 260000000 cycles: 305513339 heartbeat IPC: 0.758549 cumulative IPC: 0.742542 (Simulation time: 0 hr 9 min 11 sec) 
OFFSET CHANGED FROM 5 TO 3
OFFSET CHANGED FROM 3 TO 5
OFFSET CHANGED FROM 5 TO 5
OFFSET CHANGED FROM 5 TO 4
Heartbeat CPU 0 instructions: 270000000 cycles: 318880538 heartbeat IPC: 0.7481 cumulative IPC: 0.742793 (Simulation time: 0 hr 9 min 30 sec) 
OFFSET CHANGED FROM 4 TO 4
OFFSET CHANGED FROM 4 TO 3
OFFSET CHANGED FROM 3 TO 4
OFFSET CHANGED FROM 4 TO 2
Heartbeat CPU 0 instructions: 280000001 cycles: 332203661 heartbeat IPC: 0.750575 cumulative IPC: 0.743128 (Simulation time: 0 hr 9 min 50 sec) 
OFFSET CHANGED FROM 2 TO 2
OFFSET CHANGED FROM 2 TO 2
OFFSET CHANGED FROM 2 TO 1
OFFSET CHANGED FROM 1 TO 2
Heartbeat CPU 0 instructions: 290000000 cycles: 345458782 heartbeat IPC: 0.754425 cumulative IPC: 0.743592 (Simulation time: 0 hr 10 min 10 sec) 
OFFSET CHANGED FROM 2 TO 4
OFFSET CHANGED FROM 4 TO 3
OFFSET CHANGED FROM 3 TO 4
OFFSET CHANGED FROM 4 TO 5
OFFSET CHANGED FROM 5 TO 2
Heartbeat CPU 0 instructions: 300000000 cycles: 358709241 heartbeat IPC: 0.754691 cumulative IPC: 0.74403 (Simulation time: 0 hr 10 min 29 sec) 
Finished CPU 0 instructions: 250000000 cycles: 336008044 cumulative IPC: 0.74403 (Simulation time: 0 hr 10 min 29 sec) 

ChampSim completed all CPUs

Region of Interest Statistics

CPU 0 cumulative IPC: 0.74403 instructions: 250000000 cycles: 336008044
L1D TOTAL     ACCESS:   77933993  HIT:   77546128  MISS:     387865
L1D LOAD      ACCESS:   47789783  HIT:   47496224  MISS:     293559
L1D RFO       ACCESS:   30144210  HIT:   30049904  MISS:      94306
L1D PREFETCH  ACCESS:          0  HIT:          0  MISS:          0
L1D WRITEBACK ACCESS:          0  HIT:          0  MISS:          0
L1D PREFETCH  REQUESTED:          0  ISSUED:          0  USEFUL:          0  USELESS:          0
L1D AVERAGE MISS LATENCY: 27.0861 cycles
L1I TOTAL     ACCESS:   48344768  HIT:   48196432  MISS:     148336
L1I LOAD      ACCESS:   48265648  HIT:   48170959  MISS:      94689
L1I RFO       ACCESS:          0  HIT:          0  MISS:          0
L1I PREFETCH  ACCESS:      79120  HIT:      25473  MISS:      53647
L1I WRITEBACK ACCESS:          0  HIT:          0  MISS:          0
L1I PREFETCH  REQUESTED:     112972  ISSUED:     112972  USEFUL:      34050  USELESS:      19586
L1I AVERAGE MISS LATENCY: 14.7087 cycles
L2C TOTAL     ACCESS:    1080231  HIT:    1022309  MISS:      57922
L2C LOAD      ACCESS:     388093  HIT:     379523  MISS:       8570
L2C RFO       ACCESS:      94279  HIT:      72067  MISS:      22212
L2C PREFETCH  ACCESS:     454913  HIT:     427852  MISS:      27061
L2C WRITEBACK ACCESS:     142946  HIT:     142867  MISS:         79
L2C PREFETCH  REQUESTED:     407092  ISSUED:     407092  USEFUL:      18559  USELESS:       8279
L2C AVERAGE MISS LATENCY: 131.225 cycles
LLC TOTAL     ACCESS:      82250  HIT:      39295  MISS:      42955
LLC LOAD      ACCESS:       8463  HIT:       3008  MISS:       5455
LLC RFO       ACCESS:      22211  HIT:        494  MISS:      21717
LLC PREFETCH  ACCESS:      27169  HIT:      11387  MISS:      15782
LLC WRITEBACK ACCESS:      24407  HIT:      24406  MISS:          1
LLC PREFETCH  REQUESTED:          0  ISSUED:          0  USEFUL:        535  USELESS:      11081
LLC AVERAGE MISS LATENCY: 136.134 cycles
Major fault: 0 Minor fault: 1517
CPU 0 L1I next line prefetcher final stats
CPU 0 L2C best offset prefetcher final stats

DRAM Statistics
 CHANNEL 0
 RQ ROW_BUFFER_HIT:      18725  ROW_BUFFER_MISS:      24229
 DBUS_CONGESTED:       5747
 WQ ROW_BUFFER_HIT:        395  ROW_BUFFER_MISS:       3180  FULL:          0

 AVG_CONGESTED_CYCLE: 6

CPU 0 Branch Prediction Accuracy: 88.2314% MPKI: 20.4975 Average ROB Occupancy at Mispredict: 23.0744

Branch types
NOT_BRANCH: 206456809 82.5827%
BRANCH_DIRECT_JUMP: 1542470 0.616988%
BRANCH_INDIRECT: 9564 0.0038256%
BRANCH_CONDITIONAL: 27403062 10.9612%
BRANCH_DIRECT_CALL: 7293869 2.91755%
BRANCH_INDIRECT_CALL: 23 9.2e-06%
BRANCH_RETURN: 7293887 2.91755%
BRANCH_OTHER: 0 0%

