
*** ChampSim Multicore Out-of-Order Simulator ***

Warmup Instructions: 50000000
Simulation Instructions: 250000000
Number of CPUs: 1
LLC sets: 2048
LLC ways: 16
Off-chip DRAM Size: 4096 MB Channels: 1 Width: 64-bit Data Rate: 3200 MT/s

CPU 0 runs /home/wezelis2/ECE511_Project/ChampSim/dpc3_traces/416.gamess-875B.champsimtrace.xz
CPU 0 Bimodal branch predictor
CPU 0 L1I next line prefetcher
INIT BEST RECENT REQUEST TABLE MODULE
INIT DELAY QUEUE MODULE
INIT PREFETCH THROTTLE MODULE
INIT OFFSET SCORE MODULE
INIT BEST OFFSET PREFETCHER
OFFSET CHANGED FROM 1 TO 2
OFFSET CHANGED FROM 2 TO 1
Heartbeat CPU 0 instructions: 10000000 cycles: 4068534 heartbeat IPC: 2.45789 cumulative IPC: 2.45789 (Simulation time: 0 hr 0 min 29 sec) 
OFFSET CHANGED FROM 1 TO 2
CHANGING MSHR THRESHOLD FROM 28 TO 26
CHANGING MSHR THRESHOLD FROM 26 TO 24
CHANGING MSHR THRESHOLD FROM 24 TO 23
CHANGING MSHR THRESHOLD FROM 23 TO 21
CHANGING MSHR THRESHOLD FROM 21 TO 19
CHANGING MSHR THRESHOLD FROM 19 TO 18
CHANGING MSHR THRESHOLD FROM 18 TO 19
CHANGING MSHR THRESHOLD FROM 19 TO 21
CHANGING MSHR THRESHOLD FROM 21 TO 23
CHANGING MSHR THRESHOLD FROM 23 TO 24
CHANGING MSHR THRESHOLD FROM 24 TO 26
CHANGING MSHR THRESHOLD FROM 26 TO 28
OFFSET CHANGED FROM 2 TO -1
CHANGING MSHR THRESHOLD FROM 28 TO 26
CHANGING MSHR THRESHOLD FROM 26 TO 24
CHANGING MSHR THRESHOLD FROM 24 TO 23
CHANGING MSHR THRESHOLD FROM 23 TO 21
CHANGING MSHR THRESHOLD FROM 21 TO 19
CHANGING MSHR THRESHOLD FROM 19 TO 18
CHANGING MSHR THRESHOLD FROM 18 TO 16
CHANGING MSHR THRESHOLD FROM 16 TO 15
CHANGING MSHR THRESHOLD FROM 15 TO 13
CHANGING MSHR THRESHOLD FROM 13 TO 11
CHANGING MSHR THRESHOLD FROM 11 TO 10
CHANGING MSHR THRESHOLD FROM 10 TO 8
CHANGING MSHR THRESHOLD FROM 8 TO 10
CHANGING MSHR THRESHOLD FROM 10 TO 11
CHANGING MSHR THRESHOLD FROM 11 TO 13
CHANGING MSHR THRESHOLD FROM 13 TO 15
CHANGING MSHR THRESHOLD FROM 15 TO 16
CHANGING MSHR THRESHOLD FROM 16 TO 18
CHANGING MSHR THRESHOLD FROM 18 TO 19
CHANGING MSHR THRESHOLD FROM 19 TO 21
CHANGING MSHR THRESHOLD FROM 21 TO 23
CHANGING MSHR THRESHOLD FROM 23 TO 24
CHANGING MSHR THRESHOLD FROM 24 TO 26
CHANGING MSHR THRESHOLD FROM 26 TO 28
OFFSET CHANGED FROM -1 TO -11
CHANGING MSHR THRESHOLD FROM 28 TO 26
CHANGING MSHR THRESHOLD FROM 26 TO 28
CHANGING MSHR THRESHOLD FROM 28 TO 26
CHANGING MSHR THRESHOLD FROM 26 TO 24
CHANGING MSHR THRESHOLD FROM 24 TO 23
CHANGING MSHR THRESHOLD FROM 23 TO 21
CHANGING MSHR THRESHOLD FROM 21 TO 19
CHANGING MSHR THRESHOLD FROM 19 TO 18
CHANGING MSHR THRESHOLD FROM 18 TO 16
CHANGING MSHR THRESHOLD FROM 16 TO 15
CHANGING MSHR THRESHOLD FROM 15 TO 13
CHANGING MSHR THRESHOLD FROM 13 TO 11
CHANGING MSHR THRESHOLD FROM 11 TO 10
CHANGING MSHR THRESHOLD FROM 10 TO 8
CHANGING MSHR THRESHOLD FROM 8 TO 10
CHANGING MSHR THRESHOLD FROM 10 TO 11
CHANGING MSHR THRESHOLD FROM 11 TO 13
CHANGING MSHR THRESHOLD FROM 13 TO 15
CHANGING MSHR THRESHOLD FROM 15 TO 16
CHANGING MSHR THRESHOLD FROM 16 TO 18
CHANGING MSHR THRESHOLD FROM 18 TO 19
CHANGING MSHR THRESHOLD FROM 19 TO 21
CHANGING MSHR THRESHOLD FROM 21 TO 23
CHANGING MSHR THRESHOLD FROM 23 TO 24
CHANGING MSHR THRESHOLD FROM 24 TO 26
CHANGING MSHR THRESHOLD FROM 26 TO 28
OFFSET CHANGED FROM -11 TO -4
Heartbeat CPU 0 instructions: 20000003 cycles: 8019100 heartbeat IPC: 2.53128 cumulative IPC: 2.49405 (Simulation time: 0 hr 0 min 56 sec) 
OFFSET CHANGED FROM -4 TO 4
OFFSET CHANGED FROM 4 TO 2
Heartbeat CPU 0 instructions: 30000002 cycles: 12081860 heartbeat IPC: 2.46138 cumulative IPC: 2.48306 (Simulation time: 0 hr 1 min 26 sec) 
Heartbeat CPU 0 instructions: 40000000 cycles: 16071485 heartbeat IPC: 2.5065 cumulative IPC: 2.48888 (Simulation time: 0 hr 1 min 54 sec) 
OFFSET CHANGED FROM 2 TO 1
Heartbeat CPU 0 instructions: 50000000 cycles: 20026070 heartbeat IPC: 2.52871 cumulative IPC: 2.49675 (Simulation time: 0 hr 2 min 22 sec) 

Warmup complete CPU 0 instructions: 50000004 cycles: 20026071 (Simulation time: 0 hr 2 min 22 sec) 

OFFSET CHANGED FROM 1 TO 5
OFFSET CHANGED FROM 5 TO -7
Heartbeat CPU 0 instructions: 60000001 cycles: 28007936 heartbeat IPC: 1.25284 cumulative IPC: 1.25284 (Simulation time: 0 hr 2 min 45 sec) 
OFFSET CHANGED FROM -7 TO 1
OFFSET CHANGED FROM 1 TO 7
OFFSET CHANGED FROM 7 TO 2
Heartbeat CPU 0 instructions: 70000000 cycles: 36417507 heartbeat IPC: 1.18912 cumulative IPC: 1.22015 (Simulation time: 0 hr 3 min 8 sec) 
OFFSET CHANGED FROM 2 TO 5
OFFSET CHANGED FROM 5 TO 4
OFFSET CHANGED FROM 4 TO -1
OFFSET CHANGED FROM -1 TO 3
Heartbeat CPU 0 instructions: 80000000 cycles: 44944038 heartbeat IPC: 1.17281 cumulative IPC: 1.20395 (Simulation time: 0 hr 3 min 30 sec) 
OFFSET CHANGED FROM 3 TO 7
OFFSET CHANGED FROM 7 TO 1
OFFSET CHANGED FROM 1 TO 5
OFFSET CHANGED FROM 5 TO 5
Heartbeat CPU 0 instructions: 90000001 cycles: 52605954 heartbeat IPC: 1.30516 cumulative IPC: 1.22775 (Simulation time: 0 hr 3 min 54 sec) 
OFFSET CHANGED FROM 5 TO 4
OFFSET CHANGED FROM 4 TO 2
Heartbeat CPU 0 instructions: 100000002 cycles: 59791678 heartbeat IPC: 1.39165 cumulative IPC: 1.25737 (Simulation time: 0 hr 4 min 15 sec) 
OFFSET CHANGED FROM 2 TO 8
OFFSET CHANGED FROM 8 TO 4
OFFSET CHANGED FROM 4 TO 5
OFFSET CHANGED FROM 5 TO 8
OFFSET CHANGED FROM 8 TO 4
Heartbeat CPU 0 instructions: 110000000 cycles: 67614125 heartbeat IPC: 1.27837 cumulative IPC: 1.26082 (Simulation time: 0 hr 4 min 37 sec) 
OFFSET CHANGED FROM 4 TO 4
OFFSET CHANGED FROM 4 TO -2
OFFSET CHANGED FROM -2 TO 8
OFFSET CHANGED FROM 8 TO 4
Heartbeat CPU 0 instructions: 120000001 cycles: 75248065 heartbeat IPC: 1.30994 cumulative IPC: 1.26761 (Simulation time: 0 hr 4 min 58 sec) 
OFFSET CHANGED FROM 4 TO 4
OFFSET CHANGED FROM 4 TO 5
OFFSET CHANGED FROM 5 TO 3
OFFSET CHANGED FROM 3 TO 5
OFFSET CHANGED FROM 5 TO 3
Heartbeat CPU 0 instructions: 130000001 cycles: 82938851 heartbeat IPC: 1.30026 cumulative IPC: 1.2716 (Simulation time: 0 hr 5 min 21 sec) 
OFFSET CHANGED FROM 3 TO 9
Heartbeat CPU 0 instructions: 140000003 cycles: 90083940 heartbeat IPC: 1.39956 cumulative IPC: 1.28465 (Simulation time: 0 hr 5 min 43 sec) 
OFFSET CHANGED FROM 9 TO 1
Heartbeat CPU 0 instructions: 150000000 cycles: 96954051 heartbeat IPC: 1.45558 cumulative IPC: 1.29992 (Simulation time: 0 hr 6 min 6 sec) 
OFFSET CHANGED FROM 1 TO 1
Heartbeat CPU 0 instructions: 160000001 cycles: 104270017 heartbeat IPC: 1.36687 cumulative IPC: 1.30573 (Simulation time: 0 hr 6 min 29 sec) 
OFFSET CHANGED FROM 1 TO 3
Heartbeat CPU 0 instructions: 170000002 cycles: 111567396 heartbeat IPC: 1.37036 cumulative IPC: 1.31088 (Simulation time: 0 hr 6 min 52 sec) 
OFFSET CHANGED FROM 3 TO -1
OFFSET CHANGED FROM -1 TO 1
OFFSET CHANGED FROM 1 TO 1
OFFSET CHANGED FROM 1 TO 1
Heartbeat CPU 0 instructions: 180000002 cycles: 119840049 heartbeat IPC: 1.2088 cumulative IPC: 1.30242 (Simulation time: 0 hr 7 min 14 sec) 
OFFSET CHANGED FROM 1 TO 1
OFFSET CHANGED FROM 1 TO 3
OFFSET CHANGED FROM 3 TO 1
OFFSET CHANGED FROM 1 TO 7
OFFSET CHANGED FROM 7 TO 5
Heartbeat CPU 0 instructions: 190000000 cycles: 128326516 heartbeat IPC: 1.17835 cumulative IPC: 1.2927 (Simulation time: 0 hr 7 min 37 sec) 
OFFSET CHANGED FROM 5 TO 4
OFFSET CHANGED FROM 4 TO 5
OFFSET CHANGED FROM 5 TO -3
OFFSET CHANGED FROM -3 TO 1
OFFSET CHANGED FROM 1 TO -8
Heartbeat CPU 0 instructions: 200000000 cycles: 136861671 heartbeat IPC: 1.17162 cumulative IPC: 1.28386 (Simulation time: 0 hr 8 min 0 sec) 
OFFSET CHANGED FROM -8 TO -9
OFFSET CHANGED FROM -9 TO 3
OFFSET CHANGED FROM 3 TO 4
Heartbeat CPU 0 instructions: 210000000 cycles: 144668631 heartbeat IPC: 1.28091 cumulative IPC: 1.28367 (Simulation time: 0 hr 8 min 22 sec) 
OFFSET CHANGED FROM 4 TO 2
OFFSET CHANGED FROM 2 TO 4
Heartbeat CPU 0 instructions: 220000000 cycles: 151938562 heartbeat IPC: 1.37553 cumulative IPC: 1.28873 (Simulation time: 0 hr 8 min 44 sec) 
OFFSET CHANGED FROM 4 TO 4
OFFSET CHANGED FROM 4 TO 3
OFFSET CHANGED FROM 3 TO 4
OFFSET CHANGED FROM 4 TO 10
OFFSET CHANGED FROM 10 TO 3
Heartbeat CPU 0 instructions: 230000000 cycles: 159201434 heartbeat IPC: 1.37687 cumulative IPC: 1.29333 (Simulation time: 0 hr 9 min 6 sec) 
OFFSET CHANGED FROM 3 TO 1
OFFSET CHANGED FROM 1 TO 3
OFFSET CHANGED FROM 3 TO 5
OFFSET CHANGED FROM 5 TO 6
Heartbeat CPU 0 instructions: 240000000 cycles: 166728960 heartbeat IPC: 1.32846 cumulative IPC: 1.29513 (Simulation time: 0 hr 9 min 28 sec) 
OFFSET CHANGED FROM 6 TO 2
OFFSET CHANGED FROM 2 TO 6
OFFSET CHANGED FROM 6 TO 2
OFFSET CHANGED FROM 2 TO -6
Heartbeat CPU 0 instructions: 250000001 cycles: 174419897 heartbeat IPC: 1.30023 cumulative IPC: 1.29539 (Simulation time: 0 hr 9 min 51 sec) 
OFFSET CHANGED FROM -6 TO 8
OFFSET CHANGED FROM 8 TO 9
OFFSET CHANGED FROM 9 TO 1
OFFSET CHANGED FROM 1 TO 1
Heartbeat CPU 0 instructions: 260000001 cycles: 181926020 heartbeat IPC: 1.33225 cumulative IPC: 1.2971 (Simulation time: 0 hr 10 min 14 sec) 
OFFSET CHANGED FROM 1 TO 8
Heartbeat CPU 0 instructions: 270000003 cycles: 189802566 heartbeat IPC: 1.26959 cumulative IPC: 1.29582 (Simulation time: 0 hr 10 min 37 sec) 
OFFSET CHANGED FROM 8 TO 1
Heartbeat CPU 0 instructions: 280000000 cycles: 197684944 heartbeat IPC: 1.26865 cumulative IPC: 1.29462 (Simulation time: 0 hr 11 min 0 sec) 
Heartbeat CPU 0 instructions: 290000000 cycles: 205496498 heartbeat IPC: 1.28016 cumulative IPC: 1.29401 (Simulation time: 0 hr 11 min 23 sec) 
OFFSET CHANGED FROM 1 TO 1
Heartbeat CPU 0 instructions: 300000001 cycles: 212920164 heartbeat IPC: 1.34704 cumulative IPC: 1.29605 (Simulation time: 0 hr 11 min 46 sec) 
Finished CPU 0 instructions: 250000001 cycles: 192894096 cumulative IPC: 1.29605 (Simulation time: 0 hr 11 min 46 sec) 

ChampSim completed all CPUs

Region of Interest Statistics

CPU 0 cumulative IPC: 1.29605 instructions: 250000001 cycles: 192894096
L1D TOTAL     ACCESS:   83995154  HIT:   83715881  MISS:     279273
L1D LOAD      ACCESS:   54256518  HIT:   54031439  MISS:     225079
L1D RFO       ACCESS:   29738636  HIT:   29684442  MISS:      54194
L1D PREFETCH  ACCESS:          0  HIT:          0  MISS:          0
L1D WRITEBACK ACCESS:          0  HIT:          0  MISS:          0
L1D PREFETCH  REQUESTED:          0  ISSUED:          0  USEFUL:          0  USELESS:          0
L1D AVERAGE MISS LATENCY: 15.2323 cycles
L1I TOTAL     ACCESS:   38663413  HIT:   38556395  MISS:     107018
L1I LOAD      ACCESS:   38609412  HIT:   38531704  MISS:      77708
L1I RFO       ACCESS:          0  HIT:          0  MISS:          0
L1I PREFETCH  ACCESS:      54001  HIT:      24691  MISS:      29310
L1I WRITEBACK ACCESS:          0  HIT:          0  MISS:          0
L1I PREFETCH  REQUESTED:      98817  ISSUED:      98817  USEFUL:      22202  USELESS:       7108
L1I AVERAGE MISS LATENCY: 12.7368 cycles
L2C TOTAL     ACCESS:     759686  HIT:     757843  MISS:       1843
L2C LOAD      ACCESS:     292175  HIT:     291823  MISS:        352
L2C RFO       ACCESS:      53989  HIT:      53926  MISS:         63
L2C PREFETCH  ACCESS:     347901  HIT:     346473  MISS:       1428
L2C WRITEBACK ACCESS:      65621  HIT:      65621  MISS:          0
L2C PREFETCH  REQUESTED:     315990  ISSUED:     315990  USEFUL:        816  USELESS:          1
L2C AVERAGE MISS LATENCY: 167.689 cycles
LLC TOTAL     ACCESS:       1843  HIT:          0  MISS:       1843
LLC LOAD      ACCESS:        334  HIT:          0  MISS:        334
LLC RFO       ACCESS:         63  HIT:          0  MISS:         63
LLC PREFETCH  ACCESS:       1446  HIT:          0  MISS:       1446
LLC WRITEBACK ACCESS:          0  HIT:          0  MISS:          0
LLC PREFETCH  REQUESTED:          0  ISSUED:          0  USEFUL:          0  USELESS:          0
LLC AVERAGE MISS LATENCY: 136.696 cycles
Major fault: 0 Minor fault: 184
CPU 0 L1I next line prefetcher final stats
CPU 0 L2C best offset prefetcher final stats

DRAM Statistics
 CHANNEL 0
 RQ ROW_BUFFER_HIT:        743  ROW_BUFFER_MISS:       1100
 DBUS_CONGESTED:        356
 WQ ROW_BUFFER_HIT:          0  ROW_BUFFER_MISS:          0  FULL:          0

 AVG_CONGESTED_CYCLE: 5

CPU 0 Branch Prediction Accuracy: 92.4671% MPKI: 7.0005 Average ROB Occupancy at Mispredict: 71.2886

Branch types
NOT_BRANCH: 226766699 90.7067%
BRANCH_DIRECT_JUMP: 2004180 0.801672%
BRANCH_INDIRECT: 422670 0.169068%
BRANCH_CONDITIONAL: 18495223 7.39809%
BRANCH_DIRECT_CALL: 1155484 0.462194%
BRANCH_INDIRECT_CALL: 0 0%
BRANCH_RETURN: 1155484 0.462194%
BRANCH_OTHER: 0 0%

