
*** ChampSim Multicore Out-of-Order Simulator ***

Warmup Instructions: 50000000
Simulation Instructions: 250000000
Number of CPUs: 1
LLC sets: 2048
LLC ways: 16
Off-chip DRAM Size: 4096 MB Channels: 1 Width: 64-bit Data Rate: 3200 MT/s

CPU 0 runs /home/wezelis2/ECE511_Project/ChampSim/dpc3_traces/429.mcf-217B.champsimtrace.xz
CPU 0 Bimodal branch predictor
CPU 0 L1I next line prefetcher
INIT BEST RECENT REQUEST TABLE MODULE
INIT DELAY QUEUE MODULE
INIT PREFETCH THROTTLE MODULE
INIT OFFSET SCORE MODULE
INIT BEST OFFSET PREFETCHER
OFFSET CHANGED FROM 1 TO -3
OFFSET CHANGED FROM -3 TO -6
OFFSET CHANGED FROM -6 TO -6
OFFSET CHANGED FROM -6 TO -12
OFFSET CHANGED FROM -12 TO -3
OFFSET CHANGED FROM -3 TO -3
OFFSET CHANGED FROM -3 TO -6
OFFSET CHANGED FROM -6 TO -3
OFFSET CHANGED FROM -3 TO -9
OFFSET CHANGED FROM -9 TO -2
OFFSET CHANGED FROM -2 TO -3
OFFSET CHANGED FROM -3 TO -3
OFFSET CHANGED FROM -3 TO -3
OFFSET CHANGED FROM -3 TO -3
OFFSET CHANGED FROM -3 TO -3
OFFSET CHANGED FROM -3 TO -12
OFFSET CHANGED FROM -12 TO -3
OFFSET CHANGED FROM -3 TO -6
OFFSET CHANGED FROM -6 TO -6
OFFSET CHANGED FROM -6 TO -6
OFFSET CHANGED FROM -6 TO -9
OFFSET CHANGED FROM -9 TO -3
OFFSET CHANGED FROM -3 TO -3
OFFSET CHANGED FROM -3 TO -3
OFFSET CHANGED FROM -3 TO -12
OFFSET CHANGED FROM -12 TO -6
OFFSET CHANGED FROM -6 TO -9
OFFSET CHANGED FROM -9 TO -9
OFFSET CHANGED FROM -9 TO -12
OFFSET CHANGED FROM -12 TO -12
OFFSET CHANGED FROM -12 TO -12
OFFSET CHANGED FROM -12 TO -12
OFFSET CHANGED FROM -12 TO -3
OFFSET CHANGED FROM -3 TO -3
OFFSET CHANGED FROM -3 TO -3
OFFSET CHANGED FROM -3 TO -3
OFFSET CHANGED FROM -3 TO -12
OFFSET CHANGED FROM -12 TO -6
OFFSET CHANGED FROM -6 TO -6
OFFSET CHANGED FROM -6 TO -3
OFFSET CHANGED FROM -3 TO -3
OFFSET CHANGED FROM -3 TO -12
OFFSET CHANGED FROM -12 TO -9
OFFSET CHANGED FROM -9 TO -3
OFFSET CHANGED FROM -3 TO -12
OFFSET CHANGED FROM -12 TO -12
OFFSET CHANGED FROM -12 TO -6
OFFSET CHANGED FROM -6 TO -9
OFFSET CHANGED FROM -9 TO -9
OFFSET CHANGED FROM -9 TO -12
OFFSET CHANGED FROM -12 TO -6
OFFSET CHANGED FROM -6 TO -3
OFFSET CHANGED FROM -3 TO -6
OFFSET CHANGED FROM -6 TO -6
OFFSET CHANGED FROM -6 TO -9
OFFSET CHANGED FROM -9 TO -6
OFFSET CHANGED FROM -6 TO -6
OFFSET CHANGED FROM -6 TO -3
OFFSET CHANGED FROM -3 TO -6
OFFSET CHANGED FROM -6 TO -9
OFFSET CHANGED FROM -9 TO -12
OFFSET CHANGED FROM -12 TO -3
OFFSET CHANGED FROM -3 TO -3
OFFSET CHANGED FROM -3 TO -6
OFFSET CHANGED FROM -6 TO -6
Heartbeat CPU 0 instructions: 10000000 cycles: 3671383 heartbeat IPC: 2.72377 cumulative IPC: 2.72377 (Simulation time: 0 hr 0 min 28 sec) 
OFFSET CHANGED FROM -6 TO -3
OFFSET CHANGED FROM -3 TO -3
OFFSET CHANGED FROM -3 TO -6
OFFSET CHANGED FROM -6 TO -3
OFFSET CHANGED FROM -3 TO -12
OFFSET CHANGED FROM -12 TO -9
OFFSET CHANGED FROM -9 TO -3
OFFSET CHANGED FROM -3 TO -3
OFFSET CHANGED FROM -3 TO -3
OFFSET CHANGED FROM -3 TO -3
OFFSET CHANGED FROM -3 TO -3
OFFSET CHANGED FROM -3 TO -3
OFFSET CHANGED FROM -3 TO -3
OFFSET CHANGED FROM -3 TO -9
OFFSET CHANGED FROM -9 TO -12
OFFSET CHANGED FROM -12 TO -12
OFFSET CHANGED FROM -12 TO -3
OFFSET CHANGED FROM -3 TO -3
OFFSET CHANGED FROM -3 TO -3
OFFSET CHANGED FROM -3 TO -3
OFFSET CHANGED FROM -3 TO -12
OFFSET CHANGED FROM -12 TO -9
OFFSET CHANGED FROM -9 TO -3
OFFSET CHANGED FROM -3 TO -3
OFFSET CHANGED FROM -3 TO -6
OFFSET CHANGED FROM -6 TO -6
OFFSET CHANGED FROM -6 TO -3
OFFSET CHANGED FROM -3 TO -15
OFFSET CHANGED FROM -15 TO -9
OFFSET CHANGED FROM -9 TO -3
OFFSET CHANGED FROM -3 TO -3
OFFSET CHANGED FROM -3 TO -3
OFFSET CHANGED FROM -3 TO -6
OFFSET CHANGED FROM -6 TO -9
OFFSET CHANGED FROM -9 TO -12
OFFSET CHANGED FROM -12 TO -6
OFFSET CHANGED FROM -6 TO -6
OFFSET CHANGED FROM -6 TO -3
OFFSET CHANGED FROM -3 TO -3
OFFSET CHANGED FROM -3 TO -3
OFFSET CHANGED FROM -3 TO -3
OFFSET CHANGED FROM -3 TO -3
OFFSET CHANGED FROM -3 TO -3
OFFSET CHANGED FROM -3 TO -3
OFFSET CHANGED FROM -3 TO -3
OFFSET CHANGED FROM -3 TO -3
OFFSET CHANGED FROM -3 TO -6
OFFSET CHANGED FROM -6 TO -3
OFFSET CHANGED FROM -3 TO -12
OFFSET CHANGED FROM -12 TO -12
OFFSET CHANGED FROM -12 TO -3
OFFSET CHANGED FROM -3 TO -12
OFFSET CHANGED FROM -12 TO -9
OFFSET CHANGED FROM -9 TO -6
OFFSET CHANGED FROM -6 TO -9
OFFSET CHANGED FROM -9 TO -9
OFFSET CHANGED FROM -9 TO -3
OFFSET CHANGED FROM -3 TO -3
OFFSET CHANGED FROM -3 TO -3
OFFSET CHANGED FROM -3 TO -6
OFFSET CHANGED FROM -6 TO -3
OFFSET CHANGED FROM -3 TO -12
OFFSET CHANGED FROM -12 TO -9
OFFSET CHANGED FROM -9 TO -6
OFFSET CHANGED FROM -6 TO -3
OFFSET CHANGED FROM -3 TO -12
OFFSET CHANGED FROM -12 TO -9
OFFSET CHANGED FROM -9 TO -9
OFFSET CHANGED FROM -9 TO -6
OFFSET CHANGED FROM -6 TO -3
OFFSET CHANGED FROM -3 TO -15
OFFSET CHANGED FROM -15 TO -9
OFFSET CHANGED FROM -9 TO -3
OFFSET CHANGED FROM -3 TO -3
OFFSET CHANGED FROM -3 TO -6
OFFSET CHANGED FROM -6 TO -3
OFFSET CHANGED FROM -3 TO -3
OFFSET CHANGED FROM -3 TO -9
OFFSET CHANGED FROM -9 TO -9
OFFSET CHANGED FROM -9 TO -3
OFFSET CHANGED FROM -3 TO -3
OFFSET CHANGED FROM -3 TO -9
OFFSET CHANGED FROM -9 TO -6
OFFSET CHANGED FROM -6 TO -3
OFFSET CHANGED FROM -3 TO -3
OFFSET CHANGED FROM -3 TO -3
OFFSET CHANGED FROM -3 TO -3
OFFSET CHANGED FROM -3 TO -12
OFFSET CHANGED FROM -12 TO -6
OFFSET CHANGED FROM -6 TO -3
OFFSET CHANGED FROM -3 TO -3
OFFSET CHANGED FROM -3 TO -3
OFFSET CHANGED FROM -3 TO -3
OFFSET CHANGED FROM -3 TO -3
OFFSET CHANGED FROM -3 TO -3
OFFSET CHANGED FROM -3 TO -6
OFFSET CHANGED FROM -6 TO -9
OFFSET CHANGED FROM -9 TO -3
OFFSET CHANGED FROM -3 TO -15
OFFSET CHANGED FROM -15 TO -9
OFFSET CHANGED FROM -9 TO -3
OFFSET CHANGED FROM -3 TO -12
OFFSET CHANGED FROM -12 TO -9
OFFSET CHANGED FROM -9 TO -3
OFFSET CHANGED FROM -3 TO -12
OFFSET CHANGED FROM -12 TO -6
OFFSET CHANGED FROM -6 TO -3
OFFSET CHANGED FROM -3 TO -12
OFFSET CHANGED FROM -12 TO -12
OFFSET CHANGED FROM -12 TO -3
OFFSET CHANGED FROM -3 TO -3
OFFSET CHANGED FROM -3 TO -3
OFFSET CHANGED FROM -3 TO -6
OFFSET CHANGED FROM -6 TO -3
OFFSET CHANGED FROM -3 TO -3
OFFSET CHANGED FROM -3 TO -3
OFFSET CHANGED FROM -3 TO -6
OFFSET CHANGED FROM -6 TO -9
OFFSET CHANGED FROM -9 TO -9
OFFSET CHANGED FROM -9 TO -6
OFFSET CHANGED FROM -6 TO -3
OFFSET CHANGED FROM -3 TO -9
OFFSET CHANGED FROM -9 TO -6
OFFSET CHANGED FROM -6 TO -3
OFFSET CHANGED FROM -3 TO -3
OFFSET CHANGED FROM -3 TO -3
OFFSET CHANGED FROM -3 TO -3
OFFSET CHANGED FROM -3 TO -12
OFFSET CHANGED FROM -12 TO -12
OFFSET CHANGED FROM -12 TO -3
OFFSET CHANGED FROM -3 TO -12
OFFSET CHANGED FROM -12 TO -12
OFFSET CHANGED FROM -12 TO -15
OFFSET CHANGED FROM -15 TO -12
OFFSET CHANGED FROM -12 TO -3
OFFSET CHANGED FROM -3 TO -15
OFFSET CHANGED FROM -15 TO -12
OFFSET CHANGED FROM -12 TO -3
OFFSET CHANGED FROM -3 TO -3
OFFSET CHANGED FROM -3 TO -6
OFFSET CHANGED FROM -6 TO -3
OFFSET CHANGED FROM -3 TO -3
OFFSET CHANGED FROM -3 TO -3
OFFSET CHANGED FROM -3 TO -3
OFFSET CHANGED FROM -3 TO -3
OFFSET CHANGED FROM -3 TO -12
OFFSET CHANGED FROM -12 TO -12
OFFSET CHANGED FROM -12 TO -6
OFFSET CHANGED FROM -6 TO -12
OFFSET CHANGED FROM -12 TO -12
OFFSET CHANGED FROM -12 TO -6
OFFSET CHANGED FROM -6 TO -12
OFFSET CHANGED FROM -12 TO -12
OFFSET CHANGED FROM -12 TO -9
OFFSET CHANGED FROM -9 TO -3
OFFSET CHANGED FROM -3 TO -9
OFFSET CHANGED FROM -9 TO -9
OFFSET CHANGED FROM -9 TO -3
OFFSET CHANGED FROM -3 TO -3
OFFSET CHANGED FROM -3 TO -6
OFFSET CHANGED FROM -6 TO -6
OFFSET CHANGED FROM -6 TO -3
OFFSET CHANGED FROM -3 TO -6
OFFSET CHANGED FROM -6 TO -3
OFFSET CHANGED FROM -3 TO -3
OFFSET CHANGED FROM -3 TO -3
OFFSET CHANGED FROM -3 TO -3
OFFSET CHANGED FROM -3 TO -3
OFFSET CHANGED FROM -3 TO -3
OFFSET CHANGED FROM -3 TO -3
OFFSET CHANGED FROM -3 TO -3
OFFSET CHANGED FROM -3 TO -3
OFFSET CHANGED FROM -3 TO -3
OFFSET CHANGED FROM -3 TO -3
OFFSET CHANGED FROM -3 TO -12
OFFSET CHANGED FROM -12 TO -12
OFFSET CHANGED FROM -12 TO -3
OFFSET CHANGED FROM -3 TO -12
OFFSET CHANGED FROM -12 TO -12
OFFSET CHANGED FROM -12 TO -6
OFFSET CHANGED FROM -6 TO -12
OFFSET CHANGED FROM -12 TO -12
OFFSET CHANGED FROM -12 TO -15
OFFSET CHANGED FROM -15 TO -3
OFFSET CHANGED FROM -3 TO -3
OFFSET CHANGED FROM -3 TO -6
OFFSET CHANGED FROM -6 TO -3
OFFSET CHANGED FROM -3 TO -6
OFFSET CHANGED FROM -6 TO -3
OFFSET CHANGED FROM -3 TO -6
OFFSET CHANGED FROM -6 TO -3
OFFSET CHANGED FROM -3 TO -9
OFFSET CHANGED FROM -9 TO -9
OFFSET CHANGED FROM -9 TO -3
OFFSET CHANGED FROM -3 TO -12
OFFSET CHANGED FROM -12 TO -6
OFFSET CHANGED FROM -6 TO -3
OFFSET CHANGED FROM -3 TO -12
OFFSET CHANGED FROM -12 TO -9
OFFSET CHANGED FROM -9 TO -6
OFFSET CHANGED FROM -6 TO -12
OFFSET CHANGED FROM -12 TO -12
OFFSET CHANGED FROM -12 TO -6
OFFSET CHANGED FROM -6 TO -12
OFFSET CHANGED FROM -12 TO -12
OFFSET CHANGED FROM -12 TO -6
OFFSET CHANGED FROM -6 TO -12
OFFSET CHANGED FROM -12 TO -12
OFFSET CHANGED FROM -12 TO -9
OFFSET CHANGED FROM -9 TO -15
OFFSET CHANGED FROM -15 TO -12
OFFSET CHANGED FROM -12 TO -6
OFFSET CHANGED FROM -6 TO -6
OFFSET CHANGED FROM -6 TO -3
OFFSET CHANGED FROM -3 TO -6
OFFSET CHANGED FROM -6 TO -3
OFFSET CHANGED FROM -3 TO -3
OFFSET CHANGED FROM -3 TO -3
OFFSET CHANGED FROM -3 TO -3
OFFSET CHANGED FROM -3 TO -3
OFFSET CHANGED FROM -3 TO -3
OFFSET CHANGED FROM -3 TO -6
OFFSET CHANGED FROM -6 TO -6
OFFSET CHANGED FROM -6 TO -3
OFFSET CHANGED FROM -3 TO -15
OFFSET CHANGED FROM -15 TO -9
OFFSET CHANGED FROM -9 TO -3
OFFSET CHANGED FROM -3 TO -9
OFFSET CHANGED FROM -9 TO -9
OFFSET CHANGED FROM -9 TO -3
OFFSET CHANGED FROM -3 TO -6
OFFSET CHANGED FROM -6 TO -12
OFFSET CHANGED FROM -12 TO -12
OFFSET CHANGED FROM -12 TO -9
OFFSET CHANGED FROM -9 TO -3
OFFSET CHANGED FROM -3 TO -3
OFFSET CHANGED FROM -3 TO -6
OFFSET CHANGED FROM -6 TO -3
OFFSET CHANGED FROM -3 TO -3
OFFSET CHANGED FROM -3 TO -6
OFFSET CHANGED FROM -6 TO -3
OFFSET CHANGED FROM -3 TO -3
OFFSET CHANGED FROM -3 TO -3
OFFSET CHANGED FROM -3 TO -12
OFFSET CHANGED FROM -12 TO -3
OFFSET CHANGED FROM -3 TO -12
OFFSET CHANGED FROM -12 TO -12
OFFSET CHANGED FROM -12 TO -6
OFFSET CHANGED FROM -6 TO -12
OFFSET CHANGED FROM -12 TO -12
OFFSET CHANGED FROM -12 TO -3
OFFSET CHANGED FROM -3 TO -3
OFFSET CHANGED FROM -3 TO -9
OFFSET CHANGED FROM -9 TO -3
OFFSET CHANGED FROM -3 TO -3
OFFSET CHANGED FROM -3 TO -9
OFFSET CHANGED FROM -9 TO -9
OFFSET CHANGED FROM -9 TO -3
OFFSET CHANGED FROM -3 TO -6
OFFSET CHANGED FROM -6 TO -3
OFFSET CHANGED FROM -3 TO -6
OFFSET CHANGED FROM -6 TO -6
OFFSET CHANGED FROM -6 TO -9
OFFSET CHANGED FROM -9 TO -3
OFFSET CHANGED FROM -3 TO -6
OFFSET CHANGED FROM -6 TO -3
OFFSET CHANGED FROM -3 TO -3
OFFSET CHANGED FROM -3 TO -3
OFFSET CHANGED FROM -3 TO -3
OFFSET CHANGED FROM -3 TO -3
OFFSET CHANGED FROM -3 TO -12
OFFSET CHANGED FROM -12 TO -12
OFFSET CHANGED FROM -12 TO -3
OFFSET CHANGED FROM -3 TO -12
OFFSET CHANGED FROM -12 TO -12
OFFSET CHANGED FROM -12 TO -3
OFFSET CHANGED FROM -3 TO -12
OFFSET CHANGED FROM -12 TO -12
OFFSET CHANGED FROM -12 TO -3
OFFSET CHANGED FROM -3 TO -3
OFFSET CHANGED FROM -3 TO -3
OFFSET CHANGED FROM -3 TO -3
OFFSET CHANGED FROM -3 TO -6
OFFSET CHANGED FROM -6 TO -9
OFFSET CHANGED FROM -9 TO -9
OFFSET CHANGED FROM -9 TO -3
OFFSET CHANGED FROM -3 TO -3
OFFSET CHANGED FROM -3 TO -3
OFFSET CHANGED FROM -3 TO -3
OFFSET CHANGED FROM -3 TO -6
OFFSET CHANGED FROM -6 TO -3
OFFSET CHANGED FROM -3 TO -3
OFFSET CHANGED FROM -3 TO -6
OFFSET CHANGED FROM -6 TO -3
OFFSET CHANGED FROM -3 TO -15
OFFSET CHANGED FROM -15 TO -9
OFFSET CHANGED FROM -9 TO -3
OFFSET CHANGED FROM -3 TO -15
OFFSET CHANGED FROM -15 TO -12
OFFSET CHANGED FROM -12 TO -6
OFFSET CHANGED FROM -6 TO -12
OFFSET CHANGED FROM -12 TO -12
OFFSET CHANGED FROM -12 TO -6
OFFSET CHANGED FROM -6 TO -12
OFFSET CHANGED FROM -12 TO -12
OFFSET CHANGED FROM -12 TO -6
OFFSET CHANGED FROM -6 TO -3
OFFSET CHANGED FROM -3 TO -9
OFFSET CHANGED FROM -9 TO -6
OFFSET CHANGED FROM -6 TO -3
OFFSET CHANGED FROM -3 TO -6
OFFSET CHANGED FROM -6 TO -3
OFFSET CHANGED FROM -3 TO -3
OFFSET CHANGED FROM -3 TO -3
OFFSET CHANGED FROM -3 TO -3
OFFSET CHANGED FROM -3 TO -3
OFFSET CHANGED FROM -3 TO -3
OFFSET CHANGED FROM -3 TO -3
OFFSET CHANGED FROM -3 TO -3
OFFSET CHANGED FROM -3 TO -3
OFFSET CHANGED FROM -3 TO -3
OFFSET CHANGED FROM -3 TO -9
OFFSET CHANGED FROM -9 TO -3
OFFSET CHANGED FROM -3 TO -15
OFFSET CHANGED FROM -15 TO -9
OFFSET CHANGED FROM -9 TO -3
OFFSET CHANGED FROM -3 TO -15
OFFSET CHANGED FROM -15 TO -15
OFFSET CHANGED FROM -15 TO -15
OFFSET CHANGED FROM -15 TO -12
OFFSET CHANGED FROM -12 TO -3
OFFSET CHANGED FROM -3 TO -3
OFFSET CHANGED FROM -3 TO -3
OFFSET CHANGED FROM -3 TO -3
OFFSET CHANGED FROM -3 TO -3
OFFSET CHANGED FROM -3 TO -3
OFFSET CHANGED FROM -3 TO -12
OFFSET CHANGED FROM -12 TO -9
OFFSET CHANGED FROM -9 TO -6
OFFSET CHANGED FROM -6 TO -3
OFFSET CHANGED FROM -3 TO -6
OFFSET CHANGED FROM -6 TO -6
OFFSET CHANGED FROM -6 TO -3
OFFSET CHANGED FROM -3 TO -6
OFFSET CHANGED FROM -6 TO -12
OFFSET CHANGED FROM -12 TO -12
OFFSET CHANGED FROM -12 TO -3
OFFSET CHANGED FROM -3 TO -15
OFFSET CHANGED FROM -15 TO -9
OFFSET CHANGED FROM -9 TO -3
OFFSET CHANGED FROM -3 TO -15
OFFSET CHANGED FROM -15 TO -15
OFFSET CHANGED FROM -15 TO -6
OFFSET CHANGED FROM -6 TO -12
OFFSET CHANGED FROM -12 TO -9
OFFSET CHANGED FROM -9 TO -6
OFFSET CHANGED FROM -6 TO -12
OFFSET CHANGED FROM -12 TO -12
OFFSET CHANGED FROM -12 TO -6
OFFSET CHANGED FROM -6 TO -6
OFFSET CHANGED FROM -6 TO -6
OFFSET CHANGED FROM -6 TO -3
OFFSET CHANGED FROM -3 TO -3
OFFSET CHANGED FROM -3 TO -3
OFFSET CHANGED FROM -3 TO -3
OFFSET CHANGED FROM -3 TO -3
OFFSET CHANGED FROM -3 TO -3
OFFSET CHANGED FROM -3 TO -6
OFFSET CHANGED FROM -6 TO -12
OFFSET CHANGED FROM -12 TO -9
OFFSET CHANGED FROM -9 TO -6
OFFSET CHANGED FROM -6 TO -12
OFFSET CHANGED FROM -12 TO -12
OFFSET CHANGED FROM -12 TO -6
OFFSET CHANGED FROM -6 TO -15
OFFSET CHANGED FROM -15 TO -12
OFFSET CHANGED FROM -12 TO -6
OFFSET CHANGED FROM -6 TO -3
OFFSET CHANGED FROM -3 TO -9
OFFSET CHANGED FROM -9 TO -9
OFFSET CHANGED FROM -9 TO -3
OFFSET CHANGED FROM -3 TO -9
OFFSET CHANGED FROM -9 TO -15
OFFSET CHANGED FROM -15 TO -12
OFFSET CHANGED FROM -12 TO -12
OFFSET CHANGED FROM -12 TO -6
OFFSET CHANGED FROM -6 TO -3
OFFSET CHANGED FROM -3 TO -3
OFFSET CHANGED FROM -3 TO -3
OFFSET CHANGED FROM -3 TO -3
OFFSET CHANGED FROM -3 TO -3
OFFSET CHANGED FROM -3 TO -6
OFFSET CHANGED FROM -6 TO -15
OFFSET CHANGED FROM -15 TO -18
OFFSET CHANGED FROM -18 TO -3
OFFSET CHANGED FROM -3 TO -3
OFFSET CHANGED FROM -3 TO -6
OFFSET CHANGED FROM -6 TO -3
OFFSET CHANGED FROM -3 TO -3
OFFSET CHANGED FROM -3 TO -9
OFFSET CHANGED FROM -9 TO -6
OFFSET CHANGED FROM -6 TO -3
OFFSET CHANGED FROM -3 TO -12
OFFSET CHANGED FROM -12 TO -12
OFFSET CHANGED FROM -12 TO -6
OFFSET CHANGED FROM -6 TO -12
OFFSET CHANGED FROM -12 TO -9
OFFSET CHANGED FROM -9 TO -6
OFFSET CHANGED FROM -6 TO -12
OFFSET CHANGED FROM -12 TO -9
OFFSET CHANGED FROM -9 TO -3
OFFSET CHANGED FROM -3 TO -3
OFFSET CHANGED FROM -3 TO -3
OFFSET CHANGED FROM -3 TO -3
OFFSET CHANGED FROM -3 TO -3
OFFSET CHANGED FROM -3 TO -3
OFFSET CHANGED FROM -3 TO -3
OFFSET CHANGED FROM -3 TO -3
OFFSET CHANGED FROM -3 TO -3
OFFSET CHANGED FROM -3 TO -3
OFFSET CHANGED FROM -3 TO -3
OFFSET CHANGED FROM -3 TO -3
OFFSET CHANGED FROM -3 TO -6
OFFSET CHANGED FROM -6 TO -6
OFFSET CHANGED FROM -6 TO -12
OFFSET CHANGED FROM -12 TO -12
OFFSET CHANGED FROM -12 TO -6
OFFSET CHANGED FROM -6 TO -3
OFFSET CHANGED FROM -3 TO -6
OFFSET CHANGED FROM -6 TO -3
OFFSET CHANGED FROM -3 TO -3
OFFSET CHANGED FROM -3 TO -3
OFFSET CHANGED FROM -3 TO -3
OFFSET CHANGED FROM -3 TO -3
OFFSET CHANGED FROM -3 TO -9
OFFSET CHANGED FROM -9 TO -12
OFFSET CHANGED FROM -12 TO -12
OFFSET CHANGED FROM -12 TO -6
OFFSET CHANGED FROM -6 TO -12
OFFSET CHANGED FROM -12 TO -12
OFFSET CHANGED FROM -12 TO -3
OFFSET CHANGED FROM -3 TO -9
OFFSET CHANGED FROM -9 TO -9
OFFSET CHANGED FROM -9 TO -3
OFFSET CHANGED FROM -3 TO -12
OFFSET CHANGED FROM -12 TO -9
OFFSET CHANGED FROM -9 TO -3
OFFSET CHANGED FROM -3 TO -3
OFFSET CHANGED FROM -3 TO -3
OFFSET CHANGED FROM -3 TO -6
OFFSET CHANGED FROM -6 TO -3
OFFSET CHANGED FROM -3 TO -12
OFFSET CHANGED FROM -12 TO -9
OFFSET CHANGED FROM -9 TO -6
OFFSET CHANGED FROM -6 TO -3
OFFSET CHANGED FROM -3 TO -15
OFFSET CHANGED FROM -15 TO -9
OFFSET CHANGED FROM -9 TO -9
OFFSET CHANGED FROM -9 TO -3
OFFSET CHANGED FROM -3 TO -3
OFFSET CHANGED FROM -3 TO -12
OFFSET CHANGED FROM -12 TO -6
OFFSET CHANGED FROM -6 TO -3
OFFSET CHANGED FROM -3 TO -12
OFFSET CHANGED FROM -12 TO -6
OFFSET CHANGED FROM -6 TO -3
OFFSET CHANGED FROM -3 TO -12
OFFSET CHANGED FROM -12 TO -9
OFFSET CHANGED FROM -9 TO -3
OFFSET CHANGED FROM -3 TO -9
OFFSET CHANGED FROM -9 TO -9
OFFSET CHANGED FROM -9 TO -9
OFFSET CHANGED FROM -9 TO -9
OFFSET CHANGED FROM -9 TO -3
OFFSET CHANGED FROM -3 TO -3
OFFSET CHANGED FROM -3 TO -9
OFFSET CHANGED FROM -9 TO -12
OFFSET CHANGED FROM -12 TO -6
OFFSET CHANGED FROM -6 TO -12
OFFSET CHANGED FROM -12 TO -12
OFFSET CHANGED FROM -12 TO -3
OFFSET CHANGED FROM -3 TO -3
OFFSET CHANGED FROM -3 TO -3
OFFSET CHANGED FROM -3 TO -3
OFFSET CHANGED FROM -3 TO -3
OFFSET CHANGED FROM -3 TO -3
OFFSET CHANGED FROM -3 TO -3
OFFSET CHANGED FROM -3 TO -9
OFFSET CHANGED FROM -9 TO -9
OFFSET CHANGED FROM -9 TO -3
OFFSET CHANGED FROM -3 TO -12
OFFSET CHANGED FROM -12 TO -9
OFFSET CHANGED FROM -9 TO -9
OFFSET CHANGED FROM -9 TO -3
OFFSET CHANGED FROM -3 TO -12
OFFSET CHANGED FROM -12 TO -12
OFFSET CHANGED FROM -12 TO -6
OFFSET CHANGED FROM -6 TO -6
OFFSET CHANGED FROM -6 TO -6
OFFSET CHANGED FROM -6 TO -9
OFFSET CHANGED FROM -9 TO -9
OFFSET CHANGED FROM -9 TO -6
OFFSET CHANGED FROM -6 TO -3
OFFSET CHANGED FROM -3 TO -12
OFFSET CHANGED FROM -12 TO -9
OFFSET CHANGED FROM -9 TO -6
OFFSET CHANGED FROM -6 TO -12
OFFSET CHANGED FROM -12 TO -6
OFFSET CHANGED FROM -6 TO -15
OFFSET CHANGED FROM -15 TO -15
OFFSET CHANGED FROM -15 TO -12
OFFSET CHANGED FROM -12 TO -15
OFFSET CHANGED FROM -15 TO -12
OFFSET CHANGED FROM -12 TO -6
OFFSET CHANGED FROM -6 TO -15
OFFSET CHANGED FROM -15 TO -12
OFFSET CHANGED FROM -12 TO -6
OFFSET CHANGED FROM -6 TO -3
OFFSET CHANGED FROM -3 TO -12
OFFSET CHANGED FROM -12 TO -6
OFFSET CHANGED FROM -6 TO -6
OFFSET CHANGED FROM -6 TO -12
OFFSET CHANGED FROM -12 TO -12
OFFSET CHANGED FROM -12 TO -9
OFFSET CHANGED FROM -9 TO -3
OFFSET CHANGED FROM -3 TO -9
OFFSET CHANGED FROM -9 TO -6
OFFSET CHANGED FROM -6 TO -3
OFFSET CHANGED FROM -3 TO -3
OFFSET CHANGED FROM -3 TO -9
OFFSET CHANGED FROM -9 TO -9
OFFSET CHANGED FROM -9 TO -9
OFFSET CHANGED FROM -9 TO -3
OFFSET CHANGED FROM -3 TO -9
OFFSET CHANGED FROM -9 TO -9
OFFSET CHANGED FROM -9 TO -3
OFFSET CHANGED FROM -3 TO -3
OFFSET CHANGED FROM -3 TO -3
OFFSET CHANGED FROM -3 TO -6
OFFSET CHANGED FROM -6 TO -3
OFFSET CHANGED FROM -3 TO -9
OFFSET CHANGED FROM -9 TO -9
OFFSET CHANGED FROM -9 TO -3
OFFSET CHANGED FROM -3 TO -6
OFFSET CHANGED FROM -6 TO -3
OFFSET CHANGED FROM -3 TO -3
OFFSET CHANGED FROM -3 TO -9
OFFSET CHANGED FROM -9 TO -9
OFFSET CHANGED FROM -9 TO -3
OFFSET CHANGED FROM -3 TO -15
OFFSET CHANGED FROM -15 TO -12
OFFSET CHANGED FROM -12 TO -6
OFFSET CHANGED FROM -6 TO -15
OFFSET CHANGED FROM -15 TO -9
OFFSET CHANGED FROM -9 TO -3
OFFSET CHANGED FROM -3 TO -3
OFFSET CHANGED FROM -3 TO -3
OFFSET CHANGED FROM -3 TO -3
OFFSET CHANGED FROM -3 TO -3
OFFSET CHANGED FROM -3 TO -3
OFFSET CHANGED FROM -3 TO -9
OFFSET CHANGED FROM -9 TO -3
OFFSET CHANGED FROM -3 TO -3
OFFSET CHANGED FROM -3 TO -9
OFFSET CHANGED FROM -9 TO -3
OFFSET CHANGED FROM -3 TO -15
OFFSET CHANGED FROM -15 TO -12
OFFSET CHANGED FROM -12 TO -6
OFFSET CHANGED FROM -6 TO -3
OFFSET CHANGED FROM -3 TO -3
OFFSET CHANGED FROM -3 TO -3
OFFSET CHANGED FROM -3 TO -3
OFFSET CHANGED FROM -3 TO -3
OFFSET CHANGED FROM -3 TO -3
OFFSET CHANGED FROM -3 TO -9
OFFSET CHANGED FROM -9 TO -3
OFFSET CHANGED FROM -3 TO -3
OFFSET CHANGED FROM -3 TO -9
OFFSET CHANGED FROM -9 TO -9
OFFSET CHANGED FROM -9 TO -9
OFFSET CHANGED FROM -9 TO -9
OFFSET CHANGED FROM -9 TO -3
OFFSET CHANGED FROM -3 TO -3
OFFSET CHANGED FROM -3 TO -3
OFFSET CHANGED FROM -3 TO -3
OFFSET CHANGED FROM -3 TO -3
OFFSET CHANGED FROM -3 TO -3
OFFSET CHANGED FROM -3 TO -3
OFFSET CHANGED FROM -3 TO -6
OFFSET CHANGED FROM -6 TO -3
OFFSET CHANGED FROM -3 TO -3
OFFSET CHANGED FROM -3 TO -12
OFFSET CHANGED FROM -12 TO -9
OFFSET CHANGED FROM -9 TO -3
OFFSET CHANGED FROM -3 TO -15
OFFSET CHANGED FROM -15 TO -12
OFFSET CHANGED FROM -12 TO -6
OFFSET CHANGED FROM -6 TO -3
OFFSET CHANGED FROM -3 TO -12
OFFSET CHANGED FROM -12 TO -6
OFFSET CHANGED FROM -6 TO -3
OFFSET CHANGED FROM -3 TO -3
OFFSET CHANGED FROM -3 TO -3
OFFSET CHANGED FROM -3 TO -3
OFFSET CHANGED FROM -3 TO -3
OFFSET CHANGED FROM -3 TO -9
OFFSET CHANGED FROM -9 TO -3
OFFSET CHANGED FROM -3 TO -3
OFFSET CHANGED FROM -3 TO -9
OFFSET CHANGED FROM -9 TO -6
OFFSET CHANGED FROM -6 TO -3
OFFSET CHANGED FROM -3 TO -6
OFFSET CHANGED FROM -6 TO -3
OFFSET CHANGED FROM -3 TO -3
OFFSET CHANGED FROM -3 TO -12
OFFSET CHANGED FROM -12 TO -6
OFFSET CHANGED FROM -6 TO -3
OFFSET CHANGED FROM -3 TO -12
OFFSET CHANGED FROM -12 TO -9
OFFSET CHANGED FROM -9 TO -6
OFFSET CHANGED FROM -6 TO -6
OFFSET CHANGED FROM -6 TO -3
OFFSET CHANGED FROM -3 TO -18
OFFSET CHANGED FROM -18 TO -15
OFFSET CHANGED FROM -15 TO -12
OFFSET CHANGED FROM -12 TO -12
OFFSET CHANGED FROM -12 TO -3
OFFSET CHANGED FROM -3 TO -3
OFFSET CHANGED FROM -3 TO -3
OFFSET CHANGED FROM -3 TO -3
OFFSET CHANGED FROM -3 TO -3
OFFSET CHANGED FROM -3 TO -3
OFFSET CHANGED FROM -3 TO -3
OFFSET CHANGED FROM -3 TO -9
OFFSET CHANGED FROM -9 TO -3
OFFSET CHANGED FROM -3 TO -3
OFFSET CHANGED FROM -3 TO -3
OFFSET CHANGED FROM -3 TO -3
OFFSET CHANGED FROM -3 TO -3
OFFSET CHANGED FROM -3 TO -3
OFFSET CHANGED FROM -3 TO -3
OFFSET CHANGED FROM -3 TO -3
OFFSET CHANGED FROM -3 TO -3
OFFSET CHANGED FROM -3 TO -3
OFFSET CHANGED FROM -3 TO -3
OFFSET CHANGED FROM -3 TO -3
OFFSET CHANGED FROM -3 TO -3
OFFSET CHANGED FROM -3 TO -3
OFFSET CHANGED FROM -3 TO -3
OFFSET CHANGED FROM -3 TO -3
OFFSET CHANGED FROM -3 TO -3
OFFSET CHANGED FROM -3 TO -9
OFFSET CHANGED FROM -9 TO -6
OFFSET CHANGED FROM -6 TO -3
OFFSET CHANGED FROM -3 TO -3
OFFSET CHANGED FROM -3 TO -3
OFFSET CHANGED FROM -3 TO -3
OFFSET CHANGED FROM -3 TO -3
OFFSET CHANGED FROM -3 TO -3
OFFSET CHANGED FROM -3 TO -3
OFFSET CHANGED FROM -3 TO -3
OFFSET CHANGED FROM -3 TO -3
OFFSET CHANGED FROM -3 TO -3
OFFSET CHANGED FROM -3 TO -9
OFFSET CHANGED FROM -9 TO -9
OFFSET CHANGED FROM -9 TO -3
OFFSET CHANGED FROM -3 TO -3
OFFSET CHANGED FROM -3 TO -9
OFFSET CHANGED FROM -9 TO -6
OFFSET CHANGED FROM -6 TO -3
OFFSET CHANGED FROM -3 TO -3
OFFSET CHANGED FROM -3 TO -9
OFFSET CHANGED FROM -9 TO -3
Heartbeat CPU 0 instructions: 20000002 cycles: 8671809 heartbeat IPC: 1.99983 cumulative IPC: 2.30632 (Simulation time: 0 hr 1 min 1 sec) 
OFFSET CHANGED FROM -3 TO -3
OFFSET CHANGED FROM -3 TO -9
OFFSET CHANGED FROM -9 TO -9
OFFSET CHANGED FROM -9 TO -6
OFFSET CHANGED FROM -6 TO -3
OFFSET CHANGED FROM -3 TO -9
OFFSET CHANGED FROM -9 TO -9
OFFSET CHANGED FROM -9 TO -12
OFFSET CHANGED FROM -12 TO -9
OFFSET CHANGED FROM -9 TO -3
OFFSET CHANGED FROM -3 TO -6
OFFSET CHANGED FROM -6 TO -3
OFFSET CHANGED FROM -3 TO -12
OFFSET CHANGED FROM -12 TO -12
OFFSET CHANGED FROM -12 TO -6
OFFSET CHANGED FROM -6 TO -3
OFFSET CHANGED FROM -3 TO -12
OFFSET CHANGED FROM -12 TO -9
OFFSET CHANGED FROM -9 TO -3
OFFSET CHANGED FROM -3 TO -15
OFFSET CHANGED FROM -15 TO -9
OFFSET CHANGED FROM -9 TO -3
OFFSET CHANGED FROM -3 TO -3
OFFSET CHANGED FROM -3 TO -9
OFFSET CHANGED FROM -9 TO -3
OFFSET CHANGED FROM -3 TO -3
OFFSET CHANGED FROM -3 TO -9
OFFSET CHANGED FROM -9 TO -3
OFFSET CHANGED FROM -3 TO -3
OFFSET CHANGED FROM -3 TO -3
OFFSET CHANGED FROM -3 TO -3
OFFSET CHANGED FROM -3 TO -3
OFFSET CHANGED FROM -3 TO -3
OFFSET CHANGED FROM -3 TO -3
OFFSET CHANGED FROM -3 TO -3
OFFSET CHANGED FROM -3 TO -9
OFFSET CHANGED FROM -9 TO -12
OFFSET CHANGED FROM -12 TO -3
OFFSET CHANGED FROM -3 TO -9
OFFSET CHANGED FROM -9 TO -3
OFFSET CHANGED FROM -3 TO -3
OFFSET CHANGED FROM -3 TO -12
OFFSET CHANGED FROM -12 TO -12
OFFSET CHANGED FROM -12 TO -3
OFFSET CHANGED FROM -3 TO -12
OFFSET CHANGED FROM -12 TO -12
OFFSET CHANGED FROM -12 TO -9
OFFSET CHANGED FROM -9 TO -6
OFFSET CHANGED FROM -6 TO -9
OFFSET CHANGED FROM -9 TO -9
OFFSET CHANGED FROM -9 TO -3
OFFSET CHANGED FROM -3 TO -3
OFFSET CHANGED FROM -3 TO -15
OFFSET CHANGED FROM -15 TO -6
OFFSET CHANGED FROM -6 TO -3
OFFSET CHANGED FROM -3 TO -15
OFFSET CHANGED FROM -15 TO -9
OFFSET CHANGED FROM -9 TO -6
OFFSET CHANGED FROM -6 TO -3
OFFSET CHANGED FROM -3 TO -6
OFFSET CHANGED FROM -6 TO -3
OFFSET CHANGED FROM -3 TO -6
OFFSET CHANGED FROM -6 TO -6
OFFSET CHANGED FROM -6 TO -9
OFFSET CHANGED FROM -9 TO -12
OFFSET CHANGED FROM -12 TO -3
OFFSET CHANGED FROM -3 TO -3
OFFSET CHANGED FROM -3 TO -3
OFFSET CHANGED FROM -3 TO -3
OFFSET CHANGED FROM -3 TO -9
OFFSET CHANGED FROM -9 TO -6
OFFSET CHANGED FROM -6 TO -12
OFFSET CHANGED FROM -12 TO -12
OFFSET CHANGED FROM -12 TO -3
OFFSET CHANGED FROM -3 TO -9
OFFSET CHANGED FROM -9 TO -9
OFFSET CHANGED FROM -9 TO -9
OFFSET CHANGED FROM -9 TO -6
OFFSET CHANGED FROM -6 TO -9
OFFSET CHANGED FROM -9 TO -3
OFFSET CHANGED FROM -3 TO -3
OFFSET CHANGED FROM -3 TO -3
OFFSET CHANGED FROM -3 TO -15
OFFSET CHANGED FROM -15 TO -18
OFFSET CHANGED FROM -18 TO -9
OFFSET CHANGED FROM -9 TO -12
OFFSET CHANGED FROM -12 TO -12
OFFSET CHANGED FROM -12 TO -3
OFFSET CHANGED FROM -3 TO -12
OFFSET CHANGED FROM -12 TO -12
OFFSET CHANGED FROM -12 TO -6
OFFSET CHANGED FROM -6 TO -12
OFFSET CHANGED FROM -12 TO -12
OFFSET CHANGED FROM -12 TO -6
OFFSET CHANGED FROM -6 TO -12
OFFSET CHANGED FROM -12 TO -12
OFFSET CHANGED FROM -12 TO -3
OFFSET CHANGED FROM -3 TO -12
OFFSET CHANGED FROM -12 TO -12
OFFSET CHANGED FROM -12 TO -3
OFFSET CHANGED FROM -3 TO -3
OFFSET CHANGED FROM -3 TO -12
OFFSET CHANGED FROM -12 TO -9
OFFSET CHANGED FROM -9 TO -3
OFFSET CHANGED FROM -3 TO -15
OFFSET CHANGED FROM -15 TO -12
OFFSET CHANGED FROM -12 TO -6
OFFSET CHANGED FROM -6 TO -3
OFFSET CHANGED FROM -3 TO -12
OFFSET CHANGED FROM -12 TO -12
OFFSET CHANGED FROM -12 TO -9
OFFSET CHANGED FROM -9 TO -3
OFFSET CHANGED FROM -3 TO -12
OFFSET CHANGED FROM -12 TO -6
OFFSET CHANGED FROM -6 TO -3
OFFSET CHANGED FROM -3 TO -9
OFFSET CHANGED FROM -9 TO -9
OFFSET CHANGED FROM -9 TO -3
OFFSET CHANGED FROM -3 TO -3
OFFSET CHANGED FROM -3 TO -3
OFFSET CHANGED FROM -3 TO -6
OFFSET CHANGED FROM -6 TO -3
OFFSET CHANGED FROM -3 TO -9
OFFSET CHANGED FROM -9 TO -9
OFFSET CHANGED FROM -9 TO -6
OFFSET CHANGED FROM -6 TO -12
OFFSET CHANGED FROM -12 TO -9
OFFSET CHANGED FROM -9 TO -6
OFFSET CHANGED FROM -6 TO -6
OFFSET CHANGED FROM -6 TO -3
OFFSET CHANGED FROM -3 TO -6
OFFSET CHANGED FROM -6 TO -6
OFFSET CHANGED FROM -6 TO -9
OFFSET CHANGED FROM -9 TO -3
OFFSET CHANGED FROM -3 TO -6
OFFSET CHANGED FROM -6 TO -3
OFFSET CHANGED FROM -3 TO -3
OFFSET CHANGED FROM -3 TO -6
OFFSET CHANGED FROM -6 TO -3
OFFSET CHANGED FROM -3 TO -3
OFFSET CHANGED FROM -3 TO -12
OFFSET CHANGED FROM -12 TO -12
OFFSET CHANGED FROM -12 TO -3
OFFSET CHANGED FROM -3 TO -3
OFFSET CHANGED FROM -3 TO -3
OFFSET CHANGED FROM -3 TO -3
OFFSET CHANGED FROM -3 TO -3
OFFSET CHANGED FROM -3 TO -3
OFFSET CHANGED FROM -3 TO -3
OFFSET CHANGED FROM -3 TO -6
OFFSET CHANGED FROM -6 TO -6
OFFSET CHANGED FROM -6 TO -6
OFFSET CHANGED FROM -6 TO -3
OFFSET CHANGED FROM -3 TO -9
OFFSET CHANGED FROM -9 TO -12
OFFSET CHANGED FROM -12 TO -3
OFFSET CHANGED FROM -3 TO -3
OFFSET CHANGED FROM -3 TO -9
OFFSET CHANGED FROM -9 TO -9
OFFSET CHANGED FROM -9 TO -3
OFFSET CHANGED FROM -3 TO -3
OFFSET CHANGED FROM -3 TO -3
OFFSET CHANGED FROM -3 TO -3
OFFSET CHANGED FROM -3 TO -3
OFFSET CHANGED FROM -3 TO -9
OFFSET CHANGED FROM -9 TO -6
OFFSET CHANGED FROM -6 TO -3
OFFSET CHANGED FROM -3 TO -3
OFFSET CHANGED FROM -3 TO -3
OFFSET CHANGED FROM -3 TO -3
OFFSET CHANGED FROM -3 TO -3
OFFSET CHANGED FROM -3 TO -3
OFFSET CHANGED FROM -3 TO -3
OFFSET CHANGED FROM -3 TO -9
OFFSET CHANGED FROM -9 TO -9
OFFSET CHANGED FROM -9 TO -3
OFFSET CHANGED FROM -3 TO -3
OFFSET CHANGED FROM -3 TO -9
OFFSET CHANGED FROM -9 TO -6
OFFSET CHANGED FROM -6 TO -6
OFFSET CHANGED FROM -6 TO -3
OFFSET CHANGED FROM -3 TO -3
OFFSET CHANGED FROM -3 TO -12
OFFSET CHANGED FROM -12 TO -3
OFFSET CHANGED FROM -3 TO -3
OFFSET CHANGED FROM -3 TO -9
OFFSET CHANGED FROM -9 TO -9
OFFSET CHANGED FROM -9 TO -3
OFFSET CHANGED FROM -3 TO -9
OFFSET CHANGED FROM -9 TO -9
OFFSET CHANGED FROM -9 TO -3
OFFSET CHANGED FROM -3 TO -3
OFFSET CHANGED FROM -3 TO -3
OFFSET CHANGED FROM -3 TO -3
OFFSET CHANGED FROM -3 TO -3
OFFSET CHANGED FROM -3 TO -12
OFFSET CHANGED FROM -12 TO -12
OFFSET CHANGED FROM -12 TO -9
OFFSET CHANGED FROM -9 TO -3
OFFSET CHANGED FROM -3 TO -3
OFFSET CHANGED FROM -3 TO -3
OFFSET CHANGED FROM -3 TO -12
OFFSET CHANGED FROM -12 TO -9
OFFSET CHANGED FROM -9 TO -9
OFFSET CHANGED FROM -9 TO -3
OFFSET CHANGED FROM -3 TO -3
OFFSET CHANGED FROM -3 TO -9
OFFSET CHANGED FROM -9 TO -3
OFFSET CHANGED FROM -3 TO -3
OFFSET CHANGED FROM -3 TO -3
OFFSET CHANGED FROM -3 TO -6
OFFSET CHANGED FROM -6 TO -6
OFFSET CHANGED FROM -6 TO -3
OFFSET CHANGED FROM -3 TO -9
OFFSET CHANGED FROM -9 TO -9
OFFSET CHANGED FROM -9 TO -3
OFFSET CHANGED FROM -3 TO -9
OFFSET CHANGED FROM -9 TO -9
OFFSET CHANGED FROM -9 TO -3
OFFSET CHANGED FROM -3 TO -3
OFFSET CHANGED FROM -3 TO -6
OFFSET CHANGED FROM -6 TO -3
OFFSET CHANGED FROM -3 TO -3
OFFSET CHANGED FROM -3 TO -9
OFFSET CHANGED FROM -9 TO -15
OFFSET CHANGED FROM -15 TO -12
OFFSET CHANGED FROM -12 TO -3
OFFSET CHANGED FROM -3 TO -3
OFFSET CHANGED FROM -3 TO -9
OFFSET CHANGED FROM -9 TO -12
OFFSET CHANGED FROM -12 TO -6
OFFSET CHANGED FROM -6 TO -3
OFFSET CHANGED FROM -3 TO -3
OFFSET CHANGED FROM -3 TO -12
OFFSET CHANGED FROM -12 TO -9
OFFSET CHANGED FROM -9 TO -3
OFFSET CHANGED FROM -3 TO -9
OFFSET CHANGED FROM -9 TO -9
OFFSET CHANGED FROM -9 TO -3
OFFSET CHANGED FROM -3 TO -3
OFFSET CHANGED FROM -3 TO -3
OFFSET CHANGED FROM -3 TO -3
OFFSET CHANGED FROM -3 TO -3
OFFSET CHANGED FROM -3 TO -9
OFFSET CHANGED FROM -9 TO -9
OFFSET CHANGED FROM -9 TO -3
OFFSET CHANGED FROM -3 TO -3
OFFSET CHANGED FROM -3 TO -3
OFFSET CHANGED FROM -3 TO -3
OFFSET CHANGED FROM -3 TO -12
OFFSET CHANGED FROM -12 TO -3
OFFSET CHANGED FROM -3 TO -3
OFFSET CHANGED FROM -3 TO -3
OFFSET CHANGED FROM -3 TO -3
OFFSET CHANGED FROM -3 TO -3
OFFSET CHANGED FROM -3 TO -3
OFFSET CHANGED FROM -3 TO -3
OFFSET CHANGED FROM -3 TO -3
OFFSET CHANGED FROM -3 TO -3
OFFSET CHANGED FROM -3 TO -9
OFFSET CHANGED FROM -9 TO -6
OFFSET CHANGED FROM -6 TO -9
OFFSET CHANGED FROM -9 TO -9
OFFSET CHANGED FROM -9 TO -3
OFFSET CHANGED FROM -3 TO -3
OFFSET CHANGED FROM -3 TO -9
OFFSET CHANGED FROM -9 TO -6
OFFSET CHANGED FROM -6 TO -3
OFFSET CHANGED FROM -3 TO -3
OFFSET CHANGED FROM -3 TO -3
OFFSET CHANGED FROM -3 TO -3
OFFSET CHANGED FROM -3 TO -3
OFFSET CHANGED FROM -3 TO -3
OFFSET CHANGED FROM -3 TO -3
OFFSET CHANGED FROM -3 TO -3
OFFSET CHANGED FROM -3 TO -6
OFFSET CHANGED FROM -6 TO -3
OFFSET CHANGED FROM -3 TO -9
OFFSET CHANGED FROM -9 TO -9
OFFSET CHANGED FROM -9 TO -3
OFFSET CHANGED FROM -3 TO -3
OFFSET CHANGED FROM -3 TO -9
OFFSET CHANGED FROM -9 TO -9
OFFSET CHANGED FROM -9 TO -9
OFFSET CHANGED FROM -9 TO -3
OFFSET CHANGED FROM -3 TO -9
OFFSET CHANGED FROM -9 TO -9
OFFSET CHANGED FROM -9 TO -3
OFFSET CHANGED FROM -3 TO -3
OFFSET CHANGED FROM -3 TO -9
OFFSET CHANGED FROM -9 TO -6
OFFSET CHANGED FROM -6 TO -3
OFFSET CHANGED FROM -3 TO -3
OFFSET CHANGED FROM -3 TO -3
OFFSET CHANGED FROM -3 TO -3
OFFSET CHANGED FROM -3 TO -3
OFFSET CHANGED FROM -3 TO -3
OFFSET CHANGED FROM -3 TO -3
OFFSET CHANGED FROM -3 TO -3
OFFSET CHANGED FROM -3 TO -15
OFFSET CHANGED FROM -15 TO -9
OFFSET CHANGED FROM -9 TO -3
OFFSET CHANGED FROM -3 TO -12
OFFSET CHANGED FROM -12 TO -12
OFFSET CHANGED FROM -12 TO -6
OFFSET CHANGED FROM -6 TO -3
OFFSET CHANGED FROM -3 TO -15
OFFSET CHANGED FROM -15 TO -15
OFFSET CHANGED FROM -15 TO -9
OFFSET CHANGED FROM -9 TO -6
OFFSET CHANGED FROM -6 TO -15
OFFSET CHANGED FROM -15 TO -9
OFFSET CHANGED FROM -9 TO -3
OFFSET CHANGED FROM -3 TO -3
OFFSET CHANGED FROM -3 TO -3
OFFSET CHANGED FROM -3 TO -3
OFFSET CHANGED FROM -3 TO -3
OFFSET CHANGED FROM -3 TO -9
OFFSET CHANGED FROM -9 TO -12
OFFSET CHANGED FROM -12 TO -6
OFFSET CHANGED FROM -6 TO -12
OFFSET CHANGED FROM -12 TO -9
OFFSET CHANGED FROM -9 TO -3
OFFSET CHANGED FROM -3 TO -3
OFFSET CHANGED FROM -3 TO -3
OFFSET CHANGED FROM -3 TO -3
OFFSET CHANGED FROM -3 TO -3
OFFSET CHANGED FROM -3 TO -6
OFFSET CHANGED FROM -6 TO -3
OFFSET CHANGED FROM -3 TO -3
OFFSET CHANGED FROM -3 TO -3
OFFSET CHANGED FROM -3 TO -3
OFFSET CHANGED FROM -3 TO -3
OFFSET CHANGED FROM -3 TO -3
OFFSET CHANGED FROM -3 TO -3
OFFSET CHANGED FROM -3 TO -3
OFFSET CHANGED FROM -3 TO -3
OFFSET CHANGED FROM -3 TO -3
OFFSET CHANGED FROM -3 TO -6
OFFSET CHANGED FROM -6 TO -3
OFFSET CHANGED FROM -3 TO -15
OFFSET CHANGED FROM -15 TO -9
OFFSET CHANGED FROM -9 TO -3
OFFSET CHANGED FROM -3 TO -15
OFFSET CHANGED FROM -15 TO -9
OFFSET CHANGED FROM -9 TO -3
OFFSET CHANGED FROM -3 TO -3
OFFSET CHANGED FROM -3 TO -3
OFFSET CHANGED FROM -3 TO -6
OFFSET CHANGED FROM -6 TO -3
OFFSET CHANGED FROM -3 TO -3
OFFSET CHANGED FROM -3 TO -6
OFFSET CHANGED FROM -6 TO -12
OFFSET CHANGED FROM -12 TO -6
OFFSET CHANGED FROM -6 TO -12
OFFSET CHANGED FROM -12 TO -12
OFFSET CHANGED FROM -12 TO -12
OFFSET CHANGED FROM -12 TO -3
OFFSET CHANGED FROM -3 TO -3
OFFSET CHANGED FROM -3 TO -3
OFFSET CHANGED FROM -3 TO -3
OFFSET CHANGED FROM -3 TO -3
OFFSET CHANGED FROM -3 TO -3
OFFSET CHANGED FROM -3 TO -3
OFFSET CHANGED FROM -3 TO -3
OFFSET CHANGED FROM -3 TO -3
OFFSET CHANGED FROM -3 TO -12
OFFSET CHANGED FROM -12 TO -9
OFFSET CHANGED FROM -9 TO -6
OFFSET CHANGED FROM -6 TO -3
OFFSET CHANGED FROM -3 TO -3
OFFSET CHANGED FROM -3 TO -3
OFFSET CHANGED FROM -3 TO -3
OFFSET CHANGED FROM -3 TO -3
OFFSET CHANGED FROM -3 TO -3
OFFSET CHANGED FROM -3 TO -3
OFFSET CHANGED FROM -3 TO -3
OFFSET CHANGED FROM -3 TO -3
OFFSET CHANGED FROM -3 TO -3
OFFSET CHANGED FROM -3 TO -6
OFFSET CHANGED FROM -6 TO -6
OFFSET CHANGED FROM -6 TO -3
OFFSET CHANGED FROM -3 TO -3
OFFSET CHANGED FROM -3 TO -3
OFFSET CHANGED FROM -3 TO -3
OFFSET CHANGED FROM -3 TO -3
OFFSET CHANGED FROM -3 TO -3
OFFSET CHANGED FROM -3 TO -3
OFFSET CHANGED FROM -3 TO -3
OFFSET CHANGED FROM -3 TO -3
OFFSET CHANGED FROM -3 TO -3
OFFSET CHANGED FROM -3 TO -6
OFFSET CHANGED FROM -6 TO -6
OFFSET CHANGED FROM -6 TO -6
OFFSET CHANGED FROM -6 TO -3
OFFSET CHANGED FROM -3 TO -3
OFFSET CHANGED FROM -3 TO -6
OFFSET CHANGED FROM -6 TO -3
OFFSET CHANGED FROM -3 TO -6
OFFSET CHANGED FROM -6 TO -3
OFFSET CHANGED FROM -3 TO -6
Heartbeat CPU 0 instructions: 30000000 cycles: 13062967 heartbeat IPC: 2.2773 cumulative IPC: 2.29657 (Simulation time: 0 hr 1 min 32 sec) 
OFFSET CHANGED FROM -6 TO -3
OFFSET CHANGED FROM -3 TO -9
OFFSET CHANGED FROM -9 TO -3
OFFSET CHANGED FROM -3 TO -3
OFFSET CHANGED FROM -3 TO -9
OFFSET CHANGED FROM -9 TO -12
OFFSET CHANGED FROM -12 TO -6
OFFSET CHANGED FROM -6 TO -6
OFFSET CHANGED FROM -6 TO -3
OFFSET CHANGED FROM -3 TO -6
OFFSET CHANGED FROM -6 TO -6
OFFSET CHANGED FROM -6 TO -6
OFFSET CHANGED FROM -6 TO -3
OFFSET CHANGED FROM -3 TO -3
OFFSET CHANGED FROM -3 TO -9
OFFSET CHANGED FROM -9 TO -6
OFFSET CHANGED FROM -6 TO -3
OFFSET CHANGED FROM -3 TO -3
OFFSET CHANGED FROM -3 TO -9
OFFSET CHANGED FROM -9 TO -6
OFFSET CHANGED FROM -6 TO -6
OFFSET CHANGED FROM -6 TO -12
OFFSET CHANGED FROM -12 TO -9
OFFSET CHANGED FROM -9 TO -3
OFFSET CHANGED FROM -3 TO -3
OFFSET CHANGED FROM -3 TO -3
OFFSET CHANGED FROM -3 TO -3
OFFSET CHANGED FROM -3 TO -3
OFFSET CHANGED FROM -3 TO -3
OFFSET CHANGED FROM -3 TO -3
OFFSET CHANGED FROM -3 TO -3
OFFSET CHANGED FROM -3 TO -3
OFFSET CHANGED FROM -3 TO -3
OFFSET CHANGED FROM -3 TO -3
OFFSET CHANGED FROM -3 TO -3
OFFSET CHANGED FROM -3 TO -12
OFFSET CHANGED FROM -12 TO -6
OFFSET CHANGED FROM -6 TO -12
OFFSET CHANGED FROM -12 TO -12
OFFSET CHANGED FROM -12 TO -6
OFFSET CHANGED FROM -6 TO -12
OFFSET CHANGED FROM -12 TO -12
OFFSET CHANGED FROM -12 TO -6
OFFSET CHANGED FROM -6 TO -6
OFFSET CHANGED FROM -6 TO -12
OFFSET CHANGED FROM -12 TO -9
OFFSET CHANGED FROM -9 TO -3
OFFSET CHANGED FROM -3 TO -6
OFFSET CHANGED FROM -6 TO -3
OFFSET CHANGED FROM -3 TO -3
OFFSET CHANGED FROM -3 TO -3
OFFSET CHANGED FROM -3 TO -3
OFFSET CHANGED FROM -3 TO -6
OFFSET CHANGED FROM -6 TO -6
OFFSET CHANGED FROM -6 TO -6
OFFSET CHANGED FROM -6 TO -3
OFFSET CHANGED FROM -3 TO -3
OFFSET CHANGED FROM -3 TO -3
OFFSET CHANGED FROM -3 TO -3
OFFSET CHANGED FROM -3 TO -12
OFFSET CHANGED FROM -12 TO -9
OFFSET CHANGED FROM -9 TO -3
OFFSET CHANGED FROM -3 TO -3
OFFSET CHANGED FROM -3 TO -9
OFFSET CHANGED FROM -9 TO -9
OFFSET CHANGED FROM -9 TO -6
OFFSET CHANGED FROM -6 TO -6
OFFSET CHANGED FROM -6 TO -3
OFFSET CHANGED FROM -3 TO -3
OFFSET CHANGED FROM -3 TO -3
OFFSET CHANGED FROM -3 TO -3
OFFSET CHANGED FROM -3 TO -3
OFFSET CHANGED FROM -3 TO -3
OFFSET CHANGED FROM -3 TO -3
OFFSET CHANGED FROM -3 TO -3
OFFSET CHANGED FROM -3 TO -12
OFFSET CHANGED FROM -12 TO -9
OFFSET CHANGED FROM -9 TO -12
OFFSET CHANGED FROM -12 TO -9
OFFSET CHANGED FROM -9 TO -9
OFFSET CHANGED FROM -9 TO -12
OFFSET CHANGED FROM -12 TO -15
OFFSET CHANGED FROM -15 TO -12
OFFSET CHANGED FROM -12 TO -15
OFFSET CHANGED FROM -15 TO -12
OFFSET CHANGED FROM -12 TO -15
OFFSET CHANGED FROM -15 TO -12
OFFSET CHANGED FROM -12 TO -3
OFFSET CHANGED FROM -3 TO -3
OFFSET CHANGED FROM -3 TO -9
OFFSET CHANGED FROM -9 TO -9
OFFSET CHANGED FROM -9 TO -3
OFFSET CHANGED FROM -3 TO -9
OFFSET CHANGED FROM -9 TO -9
OFFSET CHANGED FROM -9 TO -3
OFFSET CHANGED FROM -3 TO -3
OFFSET CHANGED FROM -3 TO -3
OFFSET CHANGED FROM -3 TO -3
OFFSET CHANGED FROM -3 TO -2
OFFSET CHANGED FROM -2 TO -3
Heartbeat CPU 0 instructions: 40000002 cycles: 16803400 heartbeat IPC: 2.67349 cumulative IPC: 2.38047 (Simulation time: 0 hr 2 min 0 sec) 
OFFSET CHANGED FROM -3 TO -6
OFFSET CHANGED FROM -6 TO -9
OFFSET CHANGED FROM -9 TO -12
OFFSET CHANGED FROM -12 TO -3
OFFSET CHANGED FROM -3 TO -6
OFFSET CHANGED FROM -6 TO -6
OFFSET CHANGED FROM -6 TO -2
OFFSET CHANGED FROM -2 TO -3
OFFSET CHANGED FROM -3 TO -6
OFFSET CHANGED FROM -6 TO -6
OFFSET CHANGED FROM -6 TO -3
OFFSET CHANGED FROM -3 TO -3
OFFSET CHANGED FROM -3 TO -9
OFFSET CHANGED FROM -9 TO -12
OFFSET CHANGED FROM -12 TO -9
OFFSET CHANGED FROM -9 TO -6
OFFSET CHANGED FROM -6 TO -6
OFFSET CHANGED FROM -6 TO -12
OFFSET CHANGED FROM -12 TO -12
OFFSET CHANGED FROM -12 TO -9
OFFSET CHANGED FROM -9 TO -3
OFFSET CHANGED FROM -3 TO -3
OFFSET CHANGED FROM -3 TO -12
OFFSET CHANGED FROM -12 TO -3
OFFSET CHANGED FROM -3 TO -3
OFFSET CHANGED FROM -3 TO -3
OFFSET CHANGED FROM -3 TO -9
OFFSET CHANGED FROM -9 TO -9
OFFSET CHANGED FROM -9 TO -3
OFFSET CHANGED FROM -3 TO -6
OFFSET CHANGED FROM -6 TO -3
OFFSET CHANGED FROM -3 TO -3
OFFSET CHANGED FROM -3 TO -3
OFFSET CHANGED FROM -3 TO -3
OFFSET CHANGED FROM -3 TO -3
OFFSET CHANGED FROM -3 TO -9
OFFSET CHANGED FROM -9 TO -6
OFFSET CHANGED FROM -6 TO -3
OFFSET CHANGED FROM -3 TO -3
OFFSET CHANGED FROM -3 TO -3
OFFSET CHANGED FROM -3 TO -3
OFFSET CHANGED FROM -3 TO -12
OFFSET CHANGED FROM -12 TO -12
OFFSET CHANGED FROM -12 TO -3
OFFSET CHANGED FROM -3 TO -3
OFFSET CHANGED FROM -3 TO -6
OFFSET CHANGED FROM -6 TO -3
OFFSET CHANGED FROM -3 TO -3
OFFSET CHANGED FROM -3 TO -3
OFFSET CHANGED FROM -3 TO -3
OFFSET CHANGED FROM -3 TO -3
OFFSET CHANGED FROM -3 TO -6
OFFSET CHANGED FROM -6 TO -3
OFFSET CHANGED FROM -3 TO -3
OFFSET CHANGED FROM -3 TO -3
OFFSET CHANGED FROM -3 TO -3
OFFSET CHANGED FROM -3 TO -3
OFFSET CHANGED FROM -3 TO -3
OFFSET CHANGED FROM -3 TO -6
OFFSET CHANGED FROM -6 TO -12
OFFSET CHANGED FROM -12 TO -9
OFFSET CHANGED FROM -9 TO -3
OFFSET CHANGED FROM -3 TO -3
OFFSET CHANGED FROM -3 TO -9
OFFSET CHANGED FROM -9 TO -6
OFFSET CHANGED FROM -6 TO -6
OFFSET CHANGED FROM -6 TO -6
OFFSET CHANGED FROM -6 TO -9
OFFSET CHANGED FROM -9 TO -12
OFFSET CHANGED FROM -12 TO -12
OFFSET CHANGED FROM -12 TO -3
OFFSET CHANGED FROM -3 TO -3
OFFSET CHANGED FROM -3 TO -3
OFFSET CHANGED FROM -3 TO -3
OFFSET CHANGED FROM -3 TO -3
OFFSET CHANGED FROM -3 TO -3
OFFSET CHANGED FROM -3 TO -3
OFFSET CHANGED FROM -3 TO -9
OFFSET CHANGED FROM -9 TO -9
OFFSET CHANGED FROM -9 TO -3
OFFSET CHANGED FROM -3 TO -3
OFFSET CHANGED FROM -3 TO -3
OFFSET CHANGED FROM -3 TO -9
OFFSET CHANGED FROM -9 TO -12
OFFSET CHANGED FROM -12 TO -9
OFFSET CHANGED FROM -9 TO -3
OFFSET CHANGED FROM -3 TO -3
OFFSET CHANGED FROM -3 TO -6
OFFSET CHANGED FROM -6 TO -3
OFFSET CHANGED FROM -3 TO -6
OFFSET CHANGED FROM -6 TO -3
OFFSET CHANGED FROM -3 TO -3
OFFSET CHANGED FROM -3 TO -12
OFFSET CHANGED FROM -12 TO -12
OFFSET CHANGED FROM -12 TO -3
OFFSET CHANGED FROM -3 TO -3
OFFSET CHANGED FROM -3 TO -3
OFFSET CHANGED FROM -3 TO -3
OFFSET CHANGED FROM -3 TO -3
OFFSET CHANGED FROM -3 TO -6
OFFSET CHANGED FROM -6 TO -3
OFFSET CHANGED FROM -3 TO -3
OFFSET CHANGED FROM -3 TO -3
OFFSET CHANGED FROM -3 TO -3
OFFSET CHANGED FROM -3 TO -12
OFFSET CHANGED FROM -12 TO -12
OFFSET CHANGED FROM -12 TO -12
OFFSET CHANGED FROM -12 TO -9
OFFSET CHANGED FROM -9 TO -3
OFFSET CHANGED FROM -3 TO -3
OFFSET CHANGED FROM -3 TO -6
OFFSET CHANGED FROM -6 TO -3
OFFSET CHANGED FROM -3 TO -3
OFFSET CHANGED FROM -3 TO -9
OFFSET CHANGED FROM -9 TO -3
OFFSET CHANGED FROM -3 TO -3
OFFSET CHANGED FROM -3 TO -3
OFFSET CHANGED FROM -3 TO -3
OFFSET CHANGED FROM -3 TO -3
OFFSET CHANGED FROM -3 TO -6
OFFSET CHANGED FROM -6 TO -6
OFFSET CHANGED FROM -6 TO -3
OFFSET CHANGED FROM -3 TO -3
OFFSET CHANGED FROM -3 TO -12
OFFSET CHANGED FROM -12 TO -9
OFFSET CHANGED FROM -9 TO -3
OFFSET CHANGED FROM -3 TO -12
OFFSET CHANGED FROM -12 TO -12
OFFSET CHANGED FROM -12 TO -12
OFFSET CHANGED FROM -12 TO -9
OFFSET CHANGED FROM -9 TO -3
OFFSET CHANGED FROM -3 TO -9
OFFSET CHANGED FROM -9 TO -9
OFFSET CHANGED FROM -9 TO -3
OFFSET CHANGED FROM -3 TO -15
OFFSET CHANGED FROM -15 TO -12
OFFSET CHANGED FROM -12 TO -3
OFFSET CHANGED FROM -3 TO -3
OFFSET CHANGED FROM -3 TO -9
OFFSET CHANGED FROM -9 TO -3
OFFSET CHANGED FROM -3 TO -3
OFFSET CHANGED FROM -3 TO -9
OFFSET CHANGED FROM -9 TO -6
OFFSET CHANGED FROM -6 TO -3
OFFSET CHANGED FROM -3 TO -9
OFFSET CHANGED FROM -9 TO -3
OFFSET CHANGED FROM -3 TO -3
OFFSET CHANGED FROM -3 TO -9
OFFSET CHANGED FROM -9 TO -3
OFFSET CHANGED FROM -3 TO -9
OFFSET CHANGED FROM -9 TO -9
OFFSET CHANGED FROM -9 TO -3
OFFSET CHANGED FROM -3 TO -9
OFFSET CHANGED FROM -9 TO -6
OFFSET CHANGED FROM -6 TO -3
OFFSET CHANGED FROM -3 TO -3
OFFSET CHANGED FROM -3 TO -3
OFFSET CHANGED FROM -3 TO -3
OFFSET CHANGED FROM -3 TO -3
OFFSET CHANGED FROM -3 TO -3
OFFSET CHANGED FROM -3 TO -3
OFFSET CHANGED FROM -3 TO -3
OFFSET CHANGED FROM -3 TO -3
OFFSET CHANGED FROM -3 TO -3
OFFSET CHANGED FROM -3 TO -3
OFFSET CHANGED FROM -3 TO -3
OFFSET CHANGED FROM -3 TO -3
OFFSET CHANGED FROM -3 TO -12
OFFSET CHANGED FROM -12 TO -12
OFFSET CHANGED FROM -12 TO -3
OFFSET CHANGED FROM -3 TO -12
OFFSET CHANGED FROM -12 TO -12
OFFSET CHANGED FROM -12 TO -3
OFFSET CHANGED FROM -3 TO -3
OFFSET CHANGED FROM -3 TO -9
OFFSET CHANGED FROM -9 TO -6
OFFSET CHANGED FROM -6 TO -3
OFFSET CHANGED FROM -3 TO -3
OFFSET CHANGED FROM -3 TO -3
OFFSET CHANGED FROM -3 TO -3
OFFSET CHANGED FROM -3 TO -3
OFFSET CHANGED FROM -3 TO -9
OFFSET CHANGED FROM -9 TO -6
OFFSET CHANGED FROM -6 TO -3
OFFSET CHANGED FROM -3 TO -6
OFFSET CHANGED FROM -6 TO -3
OFFSET CHANGED FROM -3 TO -3
OFFSET CHANGED FROM -3 TO -3
OFFSET CHANGED FROM -3 TO -3
OFFSET CHANGED FROM -3 TO -3
OFFSET CHANGED FROM -3 TO -6
OFFSET CHANGED FROM -6 TO -3
OFFSET CHANGED FROM -3 TO -3
OFFSET CHANGED FROM -3 TO -3
OFFSET CHANGED FROM -3 TO -3
OFFSET CHANGED FROM -3 TO -3
OFFSET CHANGED FROM -3 TO -3
OFFSET CHANGED FROM -3 TO -3
OFFSET CHANGED FROM -3 TO -6
OFFSET CHANGED FROM -6 TO -9
OFFSET CHANGED FROM -9 TO -9
OFFSET CHANGED FROM -9 TO -9
OFFSET CHANGED FROM -9 TO -6
OFFSET CHANGED FROM -6 TO -6
OFFSET CHANGED FROM -6 TO -3
OFFSET CHANGED FROM -3 TO -12
OFFSET CHANGED FROM -12 TO -15
OFFSET CHANGED FROM -15 TO -12
OFFSET CHANGED FROM -12 TO -3
OFFSET CHANGED FROM -3 TO -9
OFFSET CHANGED FROM -9 TO -9
OFFSET CHANGED FROM -9 TO -3
OFFSET CHANGED FROM -3 TO -3
OFFSET CHANGED FROM -3 TO -9
OFFSET CHANGED FROM -9 TO -3
OFFSET CHANGED FROM -3 TO -3
OFFSET CHANGED FROM -3 TO -3
OFFSET CHANGED FROM -3 TO -3
OFFSET CHANGED FROM -3 TO -3
OFFSET CHANGED FROM -3 TO -3
OFFSET CHANGED FROM -3 TO -3
OFFSET CHANGED FROM -3 TO -3
OFFSET CHANGED FROM -3 TO -3
OFFSET CHANGED FROM -3 TO -3
OFFSET CHANGED FROM -3 TO -3
OFFSET CHANGED FROM -3 TO -3
OFFSET CHANGED FROM -3 TO -3
OFFSET CHANGED FROM -3 TO -3
OFFSET CHANGED FROM -3 TO -3
OFFSET CHANGED FROM -3 TO -9
OFFSET CHANGED FROM -9 TO -6
OFFSET CHANGED FROM -6 TO -3
OFFSET CHANGED FROM -3 TO -15
OFFSET CHANGED FROM -15 TO -9
OFFSET CHANGED FROM -9 TO -3
OFFSET CHANGED FROM -3 TO -3
OFFSET CHANGED FROM -3 TO -9
OFFSET CHANGED FROM -9 TO -6
OFFSET CHANGED FROM -6 TO -3
OFFSET CHANGED FROM -3 TO -9
OFFSET CHANGED FROM -9 TO -9
OFFSET CHANGED FROM -9 TO -3
OFFSET CHANGED FROM -3 TO -3
OFFSET CHANGED FROM -3 TO -3
OFFSET CHANGED FROM -3 TO -6
OFFSET CHANGED FROM -6 TO -12
OFFSET CHANGED FROM -12 TO -12
OFFSET CHANGED FROM -12 TO -12
OFFSET CHANGED FROM -12 TO -12
OFFSET CHANGED FROM -12 TO -6
OFFSET CHANGED FROM -6 TO -3
OFFSET CHANGED FROM -3 TO -3
OFFSET CHANGED FROM -3 TO -3
OFFSET CHANGED FROM -3 TO -6
OFFSET CHANGED FROM -6 TO -3
OFFSET CHANGED FROM -3 TO -3
OFFSET CHANGED FROM -3 TO -9
Heartbeat CPU 0 instructions: 50000002 cycles: 20889022 heartbeat IPC: 2.44761 cumulative IPC: 2.3936 (Simulation time: 0 hr 2 min 31 sec) 

Warmup complete CPU 0 instructions: 50000002 cycles: 20889022 (Simulation time: 0 hr 2 min 31 sec) 

OFFSET CHANGED FROM -9 TO -15
OFFSET CHANGED FROM -15 TO -6
OFFSET CHANGED FROM -6 TO -6
OFFSET CHANGED FROM -6 TO -12
OFFSET CHANGED FROM -12 TO -6
OFFSET CHANGED FROM -6 TO -12
OFFSET CHANGED FROM -12 TO -6
OFFSET CHANGED FROM -6 TO -9
OFFSET CHANGED FROM -9 TO -9
OFFSET CHANGED FROM -9 TO -6
OFFSET CHANGED FROM -6 TO -15
OFFSET CHANGED FROM -15 TO -12
OFFSET CHANGED FROM -12 TO -6
OFFSET CHANGED FROM -6 TO -15
OFFSET CHANGED FROM -15 TO -9
OFFSET CHANGED FROM -9 TO -12
OFFSET CHANGED FROM -12 TO -12
OFFSET CHANGED FROM -12 TO -6
OFFSET CHANGED FROM -6 TO -15
OFFSET CHANGED FROM -15 TO -6
OFFSET CHANGED FROM -6 TO -6
OFFSET CHANGED FROM -6 TO -6
OFFSET CHANGED FROM -6 TO -6
OFFSET CHANGED FROM -6 TO -6
OFFSET CHANGED FROM -6 TO -6
OFFSET CHANGED FROM -6 TO -6
OFFSET CHANGED FROM -6 TO -15
OFFSET CHANGED FROM -15 TO -9
OFFSET CHANGED FROM -9 TO -6
OFFSET CHANGED FROM -6 TO -6
OFFSET CHANGED FROM -6 TO -6
OFFSET CHANGED FROM -6 TO -6
OFFSET CHANGED FROM -6 TO -6
OFFSET CHANGED FROM -6 TO -9
OFFSET CHANGED FROM -9 TO -12
OFFSET CHANGED FROM -12 TO -12
OFFSET CHANGED FROM -12 TO -12
OFFSET CHANGED FROM -12 TO -6
OFFSET CHANGED FROM -6 TO -12
OFFSET CHANGED FROM -12 TO -6
PREFETCHING INTO L2 w/ PREFETCH SCORE 31 (MSHR OCC = 28)
PREFETCHING INTO L2 w/ PREFETCH SCORE 31 (MSHR OCC = 29)
PREFETCHING INTO L2 w/ PREFETCH SCORE 31 (MSHR OCC = 30)
PREFETCHING INTO L2 w/ PREFETCH SCORE 31 (MSHR OCC = 32)
OFFSET CHANGED FROM -6 TO -6
OFFSET CHANGED FROM -6 TO -6
OFFSET CHANGED FROM -6 TO -6
OFFSET CHANGED FROM -6 TO -6
OFFSET CHANGED FROM -6 TO -6
OFFSET CHANGED FROM -6 TO -6
OFFSET CHANGED FROM -6 TO -9
OFFSET CHANGED FROM -9 TO -9
OFFSET CHANGED FROM -9 TO -6
OFFSET CHANGED FROM -6 TO -6
OFFSET CHANGED FROM -6 TO -9
OFFSET CHANGED FROM -9 TO -9
OFFSET CHANGED FROM -9 TO -6
OFFSET CHANGED FROM -6 TO -9
OFFSET CHANGED FROM -9 TO -9
OFFSET CHANGED FROM -9 TO -9
OFFSET CHANGED FROM -9 TO -15
OFFSET CHANGED FROM -15 TO -12
OFFSET CHANGED FROM -12 TO -6
OFFSET CHANGED FROM -6 TO -6
OFFSET CHANGED FROM -6 TO -6
OFFSET CHANGED FROM -6 TO -6
OFFSET CHANGED FROM -6 TO -9
OFFSET CHANGED FROM -9 TO -9
OFFSET CHANGED FROM -9 TO -6
OFFSET CHANGED FROM -6 TO -12
OFFSET CHANGED FROM -12 TO -9
OFFSET CHANGED FROM -9 TO -6
OFFSET CHANGED FROM -6 TO -6
OFFSET CHANGED FROM -6 TO -6
OFFSET CHANGED FROM -6 TO -12
OFFSET CHANGED FROM -12 TO -9
OFFSET CHANGED FROM -9 TO -6
OFFSET CHANGED FROM -6 TO -15
OFFSET CHANGED FROM -15 TO -12
OFFSET CHANGED FROM -12 TO -6
OFFSET CHANGED FROM -6 TO -6
OFFSET CHANGED FROM -6 TO -9
OFFSET CHANGED FROM -9 TO -6
OFFSET CHANGED FROM -6 TO -6
OFFSET CHANGED FROM -6 TO -9
OFFSET CHANGED FROM -9 TO -9
OFFSET CHANGED FROM -9 TO -9
OFFSET CHANGED FROM -9 TO -9
OFFSET CHANGED FROM -9 TO -9
OFFSET CHANGED FROM -9 TO -6
OFFSET CHANGED FROM -6 TO -6
PREFETCHING INTO L2 w/ PREFETCH SCORE 31 (MSHR OCC = 29)
OFFSET CHANGED FROM -6 TO -6
OFFSET CHANGED FROM -6 TO -9
OFFSET CHANGED FROM -9 TO -6
OFFSET CHANGED FROM -6 TO -6
OFFSET CHANGED FROM -6 TO -6
OFFSET CHANGED FROM -6 TO -6
OFFSET CHANGED FROM -6 TO -6
OFFSET CHANGED FROM -6 TO -12
OFFSET CHANGED FROM -12 TO -12
OFFSET CHANGED FROM -12 TO -12
OFFSET CHANGED FROM -12 TO -6
OFFSET CHANGED FROM -6 TO -12
OFFSET CHANGED FROM -12 TO -12
OFFSET CHANGED FROM -12 TO -6
OFFSET CHANGED FROM -6 TO -12
OFFSET CHANGED FROM -12 TO -12
OFFSET CHANGED FROM -12 TO -6
OFFSET CHANGED FROM -6 TO -12
OFFSET CHANGED FROM -12 TO -9
OFFSET CHANGED FROM -9 TO -6
OFFSET CHANGED FROM -6 TO -6
OFFSET CHANGED FROM -6 TO -9
OFFSET CHANGED FROM -9 TO -6
OFFSET CHANGED FROM -6 TO -6
OFFSET CHANGED FROM -6 TO -12
OFFSET CHANGED FROM -12 TO -6
OFFSET CHANGED FROM -6 TO -6
OFFSET CHANGED FROM -6 TO -6
OFFSET CHANGED FROM -6 TO -6
OFFSET CHANGED FROM -6 TO -6
OFFSET CHANGED FROM -6 TO -15
OFFSET CHANGED FROM -15 TO -15
OFFSET CHANGED FROM -15 TO -12
OFFSET CHANGED FROM -12 TO -6
OFFSET CHANGED FROM -6 TO -6
OFFSET CHANGED FROM -6 TO -12
OFFSET CHANGED FROM -12 TO -6
OFFSET CHANGED FROM -6 TO -12
OFFSET CHANGED FROM -12 TO -12
OFFSET CHANGED FROM -12 TO -9
OFFSET CHANGED FROM -9 TO -6
OFFSET CHANGED FROM -6 TO -12
OFFSET CHANGED FROM -12 TO -9
OFFSET CHANGED FROM -9 TO -6
OFFSET CHANGED FROM -6 TO -12
OFFSET CHANGED FROM -12 TO -6
OFFSET CHANGED FROM -6 TO -6
OFFSET CHANGED FROM -6 TO -6
OFFSET CHANGED FROM -6 TO -9
OFFSET CHANGED FROM -9 TO -9
OFFSET CHANGED FROM -9 TO -9
OFFSET CHANGED FROM -9 TO -9
OFFSET CHANGED FROM -9 TO -9
OFFSET CHANGED FROM -9 TO -6
OFFSET CHANGED FROM -6 TO -9
OFFSET CHANGED FROM -9 TO -9
OFFSET CHANGED FROM -9 TO -6
OFFSET CHANGED FROM -6 TO -6
OFFSET CHANGED FROM -6 TO -6
OFFSET CHANGED FROM -6 TO -6
OFFSET CHANGED FROM -6 TO -9
OFFSET CHANGED FROM -9 TO -6
OFFSET CHANGED FROM -6 TO -6
OFFSET CHANGED FROM -6 TO -6
OFFSET CHANGED FROM -6 TO -6
OFFSET CHANGED FROM -6 TO -6
OFFSET CHANGED FROM -6 TO -6
OFFSET CHANGED FROM -6 TO -6
OFFSET CHANGED FROM -6 TO -9
OFFSET CHANGED FROM -9 TO -9
OFFSET CHANGED FROM -9 TO -6
OFFSET CHANGED FROM -6 TO -15
OFFSET CHANGED FROM -15 TO -6
OFFSET CHANGED FROM -6 TO -9
OFFSET CHANGED FROM -9 TO -9
OFFSET CHANGED FROM -9 TO -6
OFFSET CHANGED FROM -6 TO -6
OFFSET CHANGED FROM -6 TO -9
OFFSET CHANGED FROM -9 TO -6
OFFSET CHANGED FROM -6 TO -9
OFFSET CHANGED FROM -9 TO -6
OFFSET CHANGED FROM -6 TO -6
OFFSET CHANGED FROM -6 TO -9
OFFSET CHANGED FROM -9 TO -6
OFFSET CHANGED FROM -6 TO -6
OFFSET CHANGED FROM -6 TO -6
OFFSET CHANGED FROM -6 TO -9
OFFSET CHANGED FROM -9 TO -6
OFFSET CHANGED FROM -6 TO -6
OFFSET CHANGED FROM -6 TO -6
OFFSET CHANGED FROM -6 TO -6
OFFSET CHANGED FROM -6 TO -6
OFFSET CHANGED FROM -6 TO -6
OFFSET CHANGED FROM -6 TO -6
OFFSET CHANGED FROM -6 TO -6
OFFSET CHANGED FROM -6 TO -6
OFFSET CHANGED FROM -6 TO -9
OFFSET CHANGED FROM -9 TO -6
OFFSET CHANGED FROM -6 TO -6
OFFSET CHANGED FROM -6 TO -12
OFFSET CHANGED FROM -12 TO -12
OFFSET CHANGED FROM -12 TO -6
OFFSET CHANGED FROM -6 TO -6
OFFSET CHANGED FROM -6 TO -6
OFFSET CHANGED FROM -6 TO -6
OFFSET CHANGED FROM -6 TO -6
PREFETCHING INTO L2 w/ PREFETCH SCORE 31 (MSHR OCC = 28)
PREFETCHING INTO L2 w/ PREFETCH SCORE 31 (MSHR OCC = 28)
PREFETCHING INTO L2 w/ PREFETCH SCORE 31 (MSHR OCC = 30)
PREFETCHING INTO L2 w/ PREFETCH SCORE 31 (MSHR OCC = 31)
OFFSET CHANGED FROM -6 TO -6
OFFSET CHANGED FROM -6 TO -6
OFFSET CHANGED FROM -6 TO -9
OFFSET CHANGED FROM -9 TO -9
OFFSET CHANGED FROM -9 TO -6
OFFSET CHANGED FROM -6 TO -6
OFFSET CHANGED FROM -6 TO -9
OFFSET CHANGED FROM -9 TO -6
OFFSET CHANGED FROM -6 TO -9
OFFSET CHANGED FROM -9 TO -9
OFFSET CHANGED FROM -9 TO -6
OFFSET CHANGED FROM -6 TO -9
OFFSET CHANGED FROM -9 TO -6
OFFSET CHANGED FROM -6 TO -6
OFFSET CHANGED FROM -6 TO -15
OFFSET CHANGED FROM -15 TO -12
OFFSET CHANGED FROM -12 TO -6
OFFSET CHANGED FROM -6 TO -12
OFFSET CHANGED FROM -12 TO -12
OFFSET CHANGED FROM -12 TO -6
OFFSET CHANGED FROM -6 TO -12
OFFSET CHANGED FROM -12 TO -12
OFFSET CHANGED FROM -12 TO -6
OFFSET CHANGED FROM -6 TO -6
OFFSET CHANGED FROM -6 TO -12
OFFSET CHANGED FROM -12 TO -6
OFFSET CHANGED FROM -6 TO -6
OFFSET CHANGED FROM -6 TO -6
OFFSET CHANGED FROM -6 TO -6
OFFSET CHANGED FROM -6 TO -6
OFFSET CHANGED FROM -6 TO -9
OFFSET CHANGED FROM -9 TO -6
OFFSET CHANGED FROM -6 TO -6
OFFSET CHANGED FROM -6 TO -6
OFFSET CHANGED FROM -6 TO -9
OFFSET CHANGED FROM -9 TO -9
OFFSET CHANGED FROM -9 TO -6
OFFSET CHANGED FROM -6 TO -6
OFFSET CHANGED FROM -6 TO -6
OFFSET CHANGED FROM -6 TO -3
OFFSET CHANGED FROM -3 TO -6
OFFSET CHANGED FROM -6 TO -4
OFFSET CHANGED FROM -4 TO -3
OFFSET CHANGED FROM -3 TO -3
OFFSET CHANGED FROM -3 TO -6
OFFSET CHANGED FROM -6 TO -3
OFFSET CHANGED FROM -3 TO -3
OFFSET CHANGED FROM -3 TO -9
OFFSET CHANGED FROM -9 TO -3
OFFSET CHANGED FROM -3 TO -6
OFFSET CHANGED FROM -6 TO -15
OFFSET CHANGED FROM -15 TO -15
OFFSET CHANGED FROM -15 TO -9
OFFSET CHANGED FROM -9 TO -6
OFFSET CHANGED FROM -6 TO -12
OFFSET CHANGED FROM -12 TO -12
OFFSET CHANGED FROM -12 TO -6
OFFSET CHANGED FROM -6 TO -6
OFFSET CHANGED FROM -6 TO -6
OFFSET CHANGED FROM -6 TO -9
OFFSET CHANGED FROM -9 TO -9
OFFSET CHANGED FROM -9 TO -9
OFFSET CHANGED FROM -9 TO -9
OFFSET CHANGED FROM -9 TO -9
OFFSET CHANGED FROM -9 TO -6
OFFSET CHANGED FROM -6 TO -12
OFFSET CHANGED FROM -12 TO -6
OFFSET CHANGED FROM -6 TO -6
OFFSET CHANGED FROM -6 TO -6
OFFSET CHANGED FROM -6 TO -9
OFFSET CHANGED FROM -9 TO -9
OFFSET CHANGED FROM -9 TO -6
OFFSET CHANGED FROM -6 TO -9
OFFSET CHANGED FROM -9 TO -6
OFFSET CHANGED FROM -6 TO -6
OFFSET CHANGED FROM -6 TO -6
OFFSET CHANGED FROM -6 TO -6
OFFSET CHANGED FROM -6 TO -9
OFFSET CHANGED FROM -9 TO -9
OFFSET CHANGED FROM -9 TO -6
OFFSET CHANGED FROM -6 TO -6
OFFSET CHANGED FROM -6 TO -6
OFFSET CHANGED FROM -6 TO -6
OFFSET CHANGED FROM -6 TO -9
OFFSET CHANGED FROM -9 TO -9
OFFSET CHANGED FROM -9 TO -6
OFFSET CHANGED FROM -6 TO -12
OFFSET CHANGED FROM -12 TO -6
OFFSET CHANGED FROM -6 TO -6
OFFSET CHANGED FROM -6 TO -6
OFFSET CHANGED FROM -6 TO -9
OFFSET CHANGED FROM -9 TO -6
OFFSET CHANGED FROM -6 TO -12
OFFSET CHANGED FROM -12 TO -9
OFFSET CHANGED FROM -9 TO -12
OFFSET CHANGED FROM -12 TO -6
OFFSET CHANGED FROM -6 TO -6
OFFSET CHANGED FROM -6 TO -6
OFFSET CHANGED FROM -6 TO -9
OFFSET CHANGED FROM -9 TO -6
OFFSET CHANGED FROM -6 TO -15
OFFSET CHANGED FROM -15 TO -9
OFFSET CHANGED FROM -9 TO -6
OFFSET CHANGED FROM -6 TO -9
OFFSET CHANGED FROM -9 TO -12
OFFSET CHANGED FROM -12 TO -6
OFFSET CHANGED FROM -6 TO -6
OFFSET CHANGED FROM -6 TO -12
OFFSET CHANGED FROM -12 TO -12
OFFSET CHANGED FROM -12 TO -6
OFFSET CHANGED FROM -6 TO -6
OFFSET CHANGED FROM -6 TO -9
OFFSET CHANGED FROM -9 TO -6
OFFSET CHANGED FROM -6 TO -9
OFFSET CHANGED FROM -9 TO -9
OFFSET CHANGED FROM -9 TO -6
OFFSET CHANGED FROM -6 TO -6
OFFSET CHANGED FROM -6 TO -6
OFFSET CHANGED FROM -6 TO -6
OFFSET CHANGED FROM -6 TO -9
OFFSET CHANGED FROM -9 TO -9
OFFSET CHANGED FROM -9 TO -6
OFFSET CHANGED FROM -6 TO -6
OFFSET CHANGED FROM -6 TO -6
OFFSET CHANGED FROM -6 TO -6
OFFSET CHANGED FROM -6 TO -6
OFFSET CHANGED FROM -6 TO -9
OFFSET CHANGED FROM -9 TO -6
OFFSET CHANGED FROM -6 TO -6
OFFSET CHANGED FROM -6 TO -6
OFFSET CHANGED FROM -6 TO -9
OFFSET CHANGED FROM -9 TO -6
OFFSET CHANGED FROM -6 TO -9
OFFSET CHANGED FROM -9 TO -9
OFFSET CHANGED FROM -9 TO -6
OFFSET CHANGED FROM -6 TO -9
OFFSET CHANGED FROM -9 TO -12
OFFSET CHANGED FROM -12 TO -6
OFFSET CHANGED FROM -6 TO -6
OFFSET CHANGED FROM -6 TO -6
OFFSET CHANGED FROM -6 TO -6
OFFSET CHANGED FROM -6 TO -6
OFFSET CHANGED FROM -6 TO -6
OFFSET CHANGED FROM -6 TO -6
OFFSET CHANGED FROM -6 TO -6
OFFSET CHANGED FROM -6 TO -6
OFFSET CHANGED FROM -6 TO -6
OFFSET CHANGED FROM -6 TO -9
OFFSET CHANGED FROM -9 TO -6
OFFSET CHANGED FROM -6 TO -6
OFFSET CHANGED FROM -6 TO -6
OFFSET CHANGED FROM -6 TO -9
OFFSET CHANGED FROM -9 TO -6
OFFSET CHANGED FROM -6 TO -6
OFFSET CHANGED FROM -6 TO -6
OFFSET CHANGED FROM -6 TO -6
OFFSET CHANGED FROM -6 TO -6
OFFSET CHANGED FROM -6 TO -6
OFFSET CHANGED FROM -6 TO -6
OFFSET CHANGED FROM -6 TO -6
OFFSET CHANGED FROM -6 TO -9
OFFSET CHANGED FROM -9 TO -9
OFFSET CHANGED FROM -9 TO -9
OFFSET CHANGED FROM -9 TO -12
OFFSET CHANGED FROM -12 TO -12
OFFSET CHANGED FROM -12 TO -6
OFFSET CHANGED FROM -6 TO -6
OFFSET CHANGED FROM -6 TO -6
OFFSET CHANGED FROM -6 TO -6
OFFSET CHANGED FROM -6 TO -6
OFFSET CHANGED FROM -6 TO -12
OFFSET CHANGED FROM -12 TO -6
OFFSET CHANGED FROM -6 TO -12
OFFSET CHANGED FROM -12 TO -12
OFFSET CHANGED FROM -12 TO -6
OFFSET CHANGED FROM -6 TO -12
OFFSET CHANGED FROM -12 TO -12
OFFSET CHANGED FROM -12 TO -6
OFFSET CHANGED FROM -6 TO -12
OFFSET CHANGED FROM -12 TO -9
OFFSET CHANGED FROM -9 TO -6
OFFSET CHANGED FROM -6 TO -6
OFFSET CHANGED FROM -6 TO -6
OFFSET CHANGED FROM -6 TO -6
OFFSET CHANGED FROM -6 TO -6
OFFSET CHANGED FROM -6 TO -9
OFFSET CHANGED FROM -9 TO -6
OFFSET CHANGED FROM -6 TO -6
OFFSET CHANGED FROM -6 TO -12
OFFSET CHANGED FROM -12 TO -6
OFFSET CHANGED FROM -6 TO -15
OFFSET CHANGED FROM -15 TO -12
OFFSET CHANGED FROM -12 TO -12
OFFSET CHANGED FROM -12 TO -12
OFFSET CHANGED FROM -12 TO -12
OFFSET CHANGED FROM -12 TO -9
OFFSET CHANGED FROM -9 TO -6
OFFSET CHANGED FROM -6 TO -6
OFFSET CHANGED FROM -6 TO -9
OFFSET CHANGED FROM -9 TO -6
OFFSET CHANGED FROM -6 TO -6
OFFSET CHANGED FROM -6 TO -9
OFFSET CHANGED FROM -9 TO -6
OFFSET CHANGED FROM -6 TO -6
OFFSET CHANGED FROM -6 TO -6
OFFSET CHANGED FROM -6 TO -6
OFFSET CHANGED FROM -6 TO -6
OFFSET CHANGED FROM -6 TO -18
OFFSET CHANGED FROM -18 TO -12
OFFSET CHANGED FROM -12 TO -9
OFFSET CHANGED FROM -9 TO -9
OFFSET CHANGED FROM -9 TO -6
OFFSET CHANGED FROM -6 TO -6
OFFSET CHANGED FROM -6 TO -9
OFFSET CHANGED FROM -9 TO -9
OFFSET CHANGED FROM -9 TO -6
OFFSET CHANGED FROM -6 TO -6
OFFSET CHANGED FROM -6 TO -9
OFFSET CHANGED FROM -9 TO -6
OFFSET CHANGED FROM -6 TO -6
OFFSET CHANGED FROM -6 TO -9
OFFSET CHANGED FROM -9 TO -9
OFFSET CHANGED FROM -9 TO -9
OFFSET CHANGED FROM -9 TO -15
OFFSET CHANGED FROM -15 TO -9
OFFSET CHANGED FROM -9 TO -6
OFFSET CHANGED FROM -6 TO -9
OFFSET CHANGED FROM -9 TO -6
OFFSET CHANGED FROM -6 TO -6
OFFSET CHANGED FROM -6 TO -9
OFFSET CHANGED FROM -9 TO -9
OFFSET CHANGED FROM -9 TO -9
OFFSET CHANGED FROM -9 TO -6
PREFETCHING INTO L2 w/ PREFETCH SCORE 31 (MSHR OCC = 29)
OFFSET CHANGED FROM -6 TO -6
OFFSET CHANGED FROM -6 TO -6
OFFSET CHANGED FROM -6 TO -6
OFFSET CHANGED FROM -6 TO -9
OFFSET CHANGED FROM -9 TO -9
OFFSET CHANGED FROM -9 TO -6
OFFSET CHANGED FROM -6 TO -6
OFFSET CHANGED FROM -6 TO -6
OFFSET CHANGED FROM -6 TO -6
OFFSET CHANGED FROM -6 TO -9
OFFSET CHANGED FROM -9 TO -9
OFFSET CHANGED FROM -9 TO -6
OFFSET CHANGED FROM -6 TO -6
OFFSET CHANGED FROM -6 TO -9
OFFSET CHANGED FROM -9 TO -9
OFFSET CHANGED FROM -9 TO -9
OFFSET CHANGED FROM -9 TO -9
OFFSET CHANGED FROM -9 TO -6
OFFSET CHANGED FROM -6 TO -9
OFFSET CHANGED FROM -9 TO -9
OFFSET CHANGED FROM -9 TO -6
OFFSET CHANGED FROM -6 TO -6
OFFSET CHANGED FROM -6 TO -9
OFFSET CHANGED FROM -9 TO -6
OFFSET CHANGED FROM -6 TO -6
OFFSET CHANGED FROM -6 TO -6
OFFSET CHANGED FROM -6 TO -6
OFFSET CHANGED FROM -6 TO -9
OFFSET CHANGED FROM -9 TO -9
OFFSET CHANGED FROM -9 TO -6
OFFSET CHANGED FROM -6 TO -6
OFFSET CHANGED FROM -6 TO -12
OFFSET CHANGED FROM -12 TO -12
OFFSET CHANGED FROM -12 TO -6
OFFSET CHANGED FROM -6 TO -6
OFFSET CHANGED FROM -6 TO -9
OFFSET CHANGED FROM -9 TO -6
OFFSET CHANGED FROM -6 TO -6
OFFSET CHANGED FROM -6 TO -9
OFFSET CHANGED FROM -9 TO -9
OFFSET CHANGED FROM -9 TO -6
OFFSET CHANGED FROM -6 TO -6
OFFSET CHANGED FROM -6 TO -6
OFFSET CHANGED FROM -6 TO -6
OFFSET CHANGED FROM -6 TO -9
OFFSET CHANGED FROM -9 TO -15
OFFSET CHANGED FROM -15 TO -15
OFFSET CHANGED FROM -15 TO -12
OFFSET CHANGED FROM -12 TO -6
OFFSET CHANGED FROM -6 TO -12
OFFSET CHANGED FROM -12 TO -6
OFFSET CHANGED FROM -6 TO -6
OFFSET CHANGED FROM -6 TO -6
OFFSET CHANGED FROM -6 TO -6
OFFSET CHANGED FROM -6 TO -6
OFFSET CHANGED FROM -6 TO -6
OFFSET CHANGED FROM -6 TO -9
OFFSET CHANGED FROM -9 TO -9
OFFSET CHANGED FROM -9 TO -6
OFFSET CHANGED FROM -6 TO -6
OFFSET CHANGED FROM -6 TO -9
OFFSET CHANGED FROM -9 TO -6
OFFSET CHANGED FROM -6 TO -6
OFFSET CHANGED FROM -6 TO -6
OFFSET CHANGED FROM -6 TO -6
OFFSET CHANGED FROM -6 TO -6
OFFSET CHANGED FROM -6 TO -6
OFFSET CHANGED FROM -6 TO -6
OFFSET CHANGED FROM -6 TO -6
OFFSET CHANGED FROM -6 TO -9
OFFSET CHANGED FROM -9 TO -9
OFFSET CHANGED FROM -9 TO -6
OFFSET CHANGED FROM -6 TO -9
OFFSET CHANGED FROM -9 TO -9
OFFSET CHANGED FROM -9 TO -6
OFFSET CHANGED FROM -6 TO -6
OFFSET CHANGED FROM -6 TO -6
OFFSET CHANGED FROM -6 TO -6
OFFSET CHANGED FROM -6 TO -12
OFFSET CHANGED FROM -12 TO -9
OFFSET CHANGED FROM -9 TO -6
OFFSET CHANGED FROM -6 TO -12
OFFSET CHANGED FROM -12 TO -9
OFFSET CHANGED FROM -9 TO -6
OFFSET CHANGED FROM -6 TO -12
OFFSET CHANGED FROM -12 TO -12
OFFSET CHANGED FROM -12 TO -6
OFFSET CHANGED FROM -6 TO -6
OFFSET CHANGED FROM -6 TO -6
OFFSET CHANGED FROM -6 TO -6
OFFSET CHANGED FROM -6 TO -6
OFFSET CHANGED FROM -6 TO -6
OFFSET CHANGED FROM -6 TO -6
OFFSET CHANGED FROM -6 TO -15
OFFSET CHANGED FROM -15 TO -9
OFFSET CHANGED FROM -9 TO -6
Heartbeat CPU 0 instructions: 60000001 cycles: 50614590 heartbeat IPC: 0.336411 cumulative IPC: 0.336411 (Simulation time: 0 hr 3 min 16 sec) 
OFFSET CHANGED FROM -6 TO -3
OFFSET CHANGED FROM -3 TO -3
OFFSET CHANGED FROM -3 TO -3
OFFSET CHANGED FROM -3 TO -3
OFFSET CHANGED FROM -3 TO -3
OFFSET CHANGED FROM -3 TO -6
OFFSET CHANGED FROM -6 TO -9
OFFSET CHANGED FROM -9 TO -6
OFFSET CHANGED FROM -6 TO -3
OFFSET CHANGED FROM -3 TO -6
OFFSET CHANGED FROM -6 TO -12
OFFSET CHANGED FROM -12 TO -9
OFFSET CHANGED FROM -9 TO -9
OFFSET CHANGED FROM -9 TO -9
OFFSET CHANGED FROM -9 TO -9
OFFSET CHANGED FROM -9 TO -9
OFFSET CHANGED FROM -9 TO -9
OFFSET CHANGED FROM -9 TO -9
OFFSET CHANGED FROM -9 TO -15
OFFSET CHANGED FROM -15 TO -9
OFFSET CHANGED FROM -9 TO -6
OFFSET CHANGED FROM -6 TO -6
OFFSET CHANGED FROM -6 TO -9
OFFSET CHANGED FROM -9 TO -12
OFFSET CHANGED FROM -12 TO -12
OFFSET CHANGED FROM -12 TO -15
OFFSET CHANGED FROM -15 TO -12
OFFSET CHANGED FROM -12 TO -12
OFFSET CHANGED FROM -12 TO -9
OFFSET CHANGED FROM -9 TO -6
OFFSET CHANGED FROM -6 TO -9
OFFSET CHANGED FROM -9 TO -15
OFFSET CHANGED FROM -15 TO -15
OFFSET CHANGED FROM -15 TO -12
OFFSET CHANGED FROM -12 TO -9
OFFSET CHANGED FROM -9 TO -15
OFFSET CHANGED FROM -15 TO -9
OFFSET CHANGED FROM -9 TO -6
OFFSET CHANGED FROM -6 TO -15
OFFSET CHANGED FROM -15 TO -9
OFFSET CHANGED FROM -9 TO -6
OFFSET CHANGED FROM -6 TO -9
OFFSET CHANGED FROM -9 TO -12
OFFSET CHANGED FROM -12 TO -6
OFFSET CHANGED FROM -6 TO -9
OFFSET CHANGED FROM -9 TO -6
OFFSET CHANGED FROM -6 TO -3
OFFSET CHANGED FROM -3 TO -3
OFFSET CHANGED FROM -3 TO -3
OFFSET CHANGED FROM -3 TO -3
OFFSET CHANGED FROM -3 TO -6
OFFSET CHANGED FROM -6 TO -6
OFFSET CHANGED FROM -6 TO -3
OFFSET CHANGED FROM -3 TO -3
OFFSET CHANGED FROM -3 TO -3
OFFSET CHANGED FROM -3 TO -9
OFFSET CHANGED FROM -9 TO -6
OFFSET CHANGED FROM -6 TO -6
OFFSET CHANGED FROM -6 TO -6
OFFSET CHANGED FROM -6 TO -6
OFFSET CHANGED FROM -6 TO -6
OFFSET CHANGED FROM -6 TO -6
OFFSET CHANGED FROM -6 TO -6
OFFSET CHANGED FROM -6 TO -6
OFFSET CHANGED FROM -6 TO -12
OFFSET CHANGED FROM -12 TO -6
OFFSET CHANGED FROM -6 TO -6
OFFSET CHANGED FROM -6 TO -6
OFFSET CHANGED FROM -6 TO -6
OFFSET CHANGED FROM -6 TO -6
OFFSET CHANGED FROM -6 TO -6
OFFSET CHANGED FROM -6 TO -6
OFFSET CHANGED FROM -6 TO -6
OFFSET CHANGED FROM -6 TO -6
OFFSET CHANGED FROM -6 TO -6
OFFSET CHANGED FROM -6 TO -9
OFFSET CHANGED FROM -9 TO -6
OFFSET CHANGED FROM -6 TO -6
OFFSET CHANGED FROM -6 TO -6
OFFSET CHANGED FROM -6 TO -6
OFFSET CHANGED FROM -6 TO -6
OFFSET CHANGED FROM -6 TO -6
OFFSET CHANGED FROM -6 TO -6
OFFSET CHANGED FROM -6 TO -6
OFFSET CHANGED FROM -6 TO -6
OFFSET CHANGED FROM -6 TO -9
OFFSET CHANGED FROM -9 TO -9
OFFSET CHANGED FROM -9 TO -6
OFFSET CHANGED FROM -6 TO -6
OFFSET CHANGED FROM -6 TO -9
OFFSET CHANGED FROM -9 TO -6
OFFSET CHANGED FROM -6 TO -6
OFFSET CHANGED FROM -6 TO -9
OFFSET CHANGED FROM -9 TO -6
OFFSET CHANGED FROM -6 TO -9
OFFSET CHANGED FROM -9 TO -12
OFFSET CHANGED FROM -12 TO -9
OFFSET CHANGED FROM -9 TO -6
OFFSET CHANGED FROM -6 TO -9
OFFSET CHANGED FROM -9 TO -9
OFFSET CHANGED FROM -9 TO -6
OFFSET CHANGED FROM -6 TO -6
OFFSET CHANGED FROM -6 TO -6
OFFSET CHANGED FROM -6 TO -6
OFFSET CHANGED FROM -6 TO -6
OFFSET CHANGED FROM -6 TO -6
OFFSET CHANGED FROM -6 TO -6
OFFSET CHANGED FROM -6 TO -9
OFFSET CHANGED FROM -9 TO -6
OFFSET CHANGED FROM -6 TO -6
OFFSET CHANGED FROM -6 TO -9
OFFSET CHANGED FROM -9 TO -9
OFFSET CHANGED FROM -9 TO -6
OFFSET CHANGED FROM -6 TO -9
OFFSET CHANGED FROM -9 TO -9
OFFSET CHANGED FROM -9 TO -6
OFFSET CHANGED FROM -6 TO -6
OFFSET CHANGED FROM -6 TO -6
OFFSET CHANGED FROM -6 TO -6
OFFSET CHANGED FROM -6 TO -6
OFFSET CHANGED FROM -6 TO -6
OFFSET CHANGED FROM -6 TO -6
OFFSET CHANGED FROM -6 TO -6
OFFSET CHANGED FROM -6 TO -9
OFFSET CHANGED FROM -9 TO -6
OFFSET CHANGED FROM -6 TO -6
OFFSET CHANGED FROM -6 TO -12
OFFSET CHANGED FROM -12 TO -6
OFFSET CHANGED FROM -6 TO -6
OFFSET CHANGED FROM -6 TO -6
OFFSET CHANGED FROM -6 TO -6
OFFSET CHANGED FROM -6 TO -6
OFFSET CHANGED FROM -6 TO -15
OFFSET CHANGED FROM -15 TO -9
OFFSET CHANGED FROM -9 TO -6
OFFSET CHANGED FROM -6 TO -15
OFFSET CHANGED FROM -15 TO -15
OFFSET CHANGED FROM -15 TO -6
OFFSET CHANGED FROM -6 TO -9
OFFSET CHANGED FROM -9 TO -9
OFFSET CHANGED FROM -9 TO -6
OFFSET CHANGED FROM -6 TO -6
OFFSET CHANGED FROM -6 TO -9
OFFSET CHANGED FROM -9 TO -6
OFFSET CHANGED FROM -6 TO -6
OFFSET CHANGED FROM -6 TO -6
OFFSET CHANGED FROM -6 TO -6
OFFSET CHANGED FROM -6 TO -6
OFFSET CHANGED FROM -6 TO -6
OFFSET CHANGED FROM -6 TO -6
OFFSET CHANGED FROM -6 TO -6
OFFSET CHANGED FROM -6 TO -9
OFFSET CHANGED FROM -9 TO -12
OFFSET CHANGED FROM -12 TO -12
PREFETCHING INTO L2 w/ PREFETCH SCORE 31 (MSHR OCC = 28)
OFFSET CHANGED FROM -12 TO -6
OFFSET CHANGED FROM -6 TO -6
OFFSET CHANGED FROM -6 TO -6
OFFSET CHANGED FROM -6 TO -6
OFFSET CHANGED FROM -6 TO -9
OFFSET CHANGED FROM -9 TO -9
OFFSET CHANGED FROM -9 TO -6
OFFSET CHANGED FROM -6 TO -6
OFFSET CHANGED FROM -6 TO -6
OFFSET CHANGED FROM -6 TO -6
OFFSET CHANGED FROM -6 TO -9
OFFSET CHANGED FROM -9 TO -6
OFFSET CHANGED FROM -6 TO -6
OFFSET CHANGED FROM -6 TO -9
OFFSET CHANGED FROM -9 TO -9
OFFSET CHANGED FROM -9 TO -6
OFFSET CHANGED FROM -6 TO -9
OFFSET CHANGED FROM -9 TO -6
OFFSET CHANGED FROM -6 TO -6
OFFSET CHANGED FROM -6 TO -6
OFFSET CHANGED FROM -6 TO -6
OFFSET CHANGED FROM -6 TO -6
OFFSET CHANGED FROM -6 TO -6
OFFSET CHANGED FROM -6 TO -6
OFFSET CHANGED FROM -6 TO -6
OFFSET CHANGED FROM -6 TO -6
OFFSET CHANGED FROM -6 TO -6
OFFSET CHANGED FROM -6 TO -6
OFFSET CHANGED FROM -6 TO -6
OFFSET CHANGED FROM -6 TO -15
OFFSET CHANGED FROM -15 TO -18
OFFSET CHANGED FROM -18 TO -9
OFFSET CHANGED FROM -9 TO -9
OFFSET CHANGED FROM -9 TO -9
OFFSET CHANGED FROM -9 TO -6
OFFSET CHANGED FROM -6 TO -9
OFFSET CHANGED FROM -9 TO -12
OFFSET CHANGED FROM -12 TO -9
OFFSET CHANGED FROM -9 TO -6
PREFETCHING INTO L2 w/ PREFETCH SCORE 31 (MSHR OCC = 29)
PREFETCHING INTO L2 w/ PREFETCH SCORE 31 (MSHR OCC = 30)
PREFETCHING INTO L2 w/ PREFETCH SCORE 31 (MSHR OCC = 30)
PREFETCHING INTO L2 w/ PREFETCH SCORE 31 (MSHR OCC = 29)
OFFSET CHANGED FROM -6 TO -9
OFFSET CHANGED FROM -9 TO -6
OFFSET CHANGED FROM -6 TO -12
OFFSET CHANGED FROM -12 TO -9
OFFSET CHANGED FROM -9 TO -9
PREFETCHING INTO L2 w/ PREFETCH SCORE 31 (MSHR OCC = 28)
OFFSET CHANGED FROM -9 TO -6
OFFSET CHANGED FROM -6 TO -12
OFFSET CHANGED FROM -12 TO -15
OFFSET CHANGED FROM -15 TO -9
OFFSET CHANGED FROM -9 TO -6
OFFSET CHANGED FROM -6 TO -9
OFFSET CHANGED FROM -9 TO -9
OFFSET CHANGED FROM -9 TO -6
OFFSET CHANGED FROM -6 TO -6
OFFSET CHANGED FROM -6 TO -12
OFFSET CHANGED FROM -12 TO -9
OFFSET CHANGED FROM -9 TO -6
OFFSET CHANGED FROM -6 TO -9
OFFSET CHANGED FROM -9 TO -9
OFFSET CHANGED FROM -9 TO -6
OFFSET CHANGED FROM -6 TO -6
OFFSET CHANGED FROM -6 TO -6
OFFSET CHANGED FROM -6 TO -6
OFFSET CHANGED FROM -6 TO -6
OFFSET CHANGED FROM -6 TO -6
OFFSET CHANGED FROM -6 TO -6
OFFSET CHANGED FROM -6 TO -9
OFFSET CHANGED FROM -9 TO -9
OFFSET CHANGED FROM -9 TO -6
OFFSET CHANGED FROM -6 TO -12
OFFSET CHANGED FROM -12 TO -9
OFFSET CHANGED FROM -9 TO -9
OFFSET CHANGED FROM -9 TO -6
OFFSET CHANGED FROM -6 TO -6
Heartbeat CPU 0 instructions: 70000002 cycles: 68336854 heartbeat IPC: 0.564262 cumulative IPC: 0.421516 (Simulation time: 0 hr 3 min 48 sec) 
OFFSET CHANGED FROM -6 TO -12
OFFSET CHANGED FROM -12 TO -12
OFFSET CHANGED FROM -12 TO -6
OFFSET CHANGED FROM -6 TO -6
OFFSET CHANGED FROM -6 TO -12
OFFSET CHANGED FROM -12 TO -6
OFFSET CHANGED FROM -6 TO -12
OFFSET CHANGED FROM -12 TO -12
OFFSET CHANGED FROM -12 TO -6
OFFSET CHANGED FROM -6 TO -6
OFFSET CHANGED FROM -6 TO -6
OFFSET CHANGED FROM -6 TO -6
OFFSET CHANGED FROM -6 TO -6
OFFSET CHANGED FROM -6 TO -6
OFFSET CHANGED FROM -6 TO -6
OFFSET CHANGED FROM -6 TO -12
OFFSET CHANGED FROM -12 TO -6
OFFSET CHANGED FROM -6 TO -6
OFFSET CHANGED FROM -6 TO -6
OFFSET CHANGED FROM -6 TO -6
OFFSET CHANGED FROM -6 TO -6
OFFSET CHANGED FROM -6 TO -6
OFFSET CHANGED FROM -6 TO -12
OFFSET CHANGED FROM -12 TO -12
OFFSET CHANGED FROM -12 TO -12
OFFSET CHANGED FROM -12 TO -15
OFFSET CHANGED FROM -15 TO -12
OFFSET CHANGED FROM -12 TO -6
OFFSET CHANGED FROM -6 TO -6
OFFSET CHANGED FROM -6 TO -6
OFFSET CHANGED FROM -6 TO -12
OFFSET CHANGED FROM -12 TO -12
OFFSET CHANGED FROM -12 TO -6
OFFSET CHANGED FROM -6 TO -6
OFFSET CHANGED FROM -6 TO -12
OFFSET CHANGED FROM -12 TO -9
OFFSET CHANGED FROM -9 TO -6
OFFSET CHANGED FROM -6 TO -6
OFFSET CHANGED FROM -6 TO -9
OFFSET CHANGED FROM -9 TO -9
OFFSET CHANGED FROM -9 TO -9
OFFSET CHANGED FROM -9 TO -6
OFFSET CHANGED FROM -6 TO -6
OFFSET CHANGED FROM -6 TO -6
OFFSET CHANGED FROM -6 TO -6
OFFSET CHANGED FROM -6 TO -12
OFFSET CHANGED FROM -12 TO -9
OFFSET CHANGED FROM -9 TO -9
OFFSET CHANGED FROM -9 TO -6
OFFSET CHANGED FROM -6 TO -6
OFFSET CHANGED FROM -6 TO -6
OFFSET CHANGED FROM -6 TO -6
OFFSET CHANGED FROM -6 TO -15
OFFSET CHANGED FROM -15 TO -9
OFFSET CHANGED FROM -9 TO -9
OFFSET CHANGED FROM -9 TO -9
OFFSET CHANGED FROM -9 TO -9
OFFSET CHANGED FROM -9 TO -6
OFFSET CHANGED FROM -6 TO -6
OFFSET CHANGED FROM -6 TO -9
OFFSET CHANGED FROM -9 TO -6
OFFSET CHANGED FROM -6 TO -6
OFFSET CHANGED FROM -6 TO -6
OFFSET CHANGED FROM -6 TO -9
OFFSET CHANGED FROM -9 TO -9
OFFSET CHANGED FROM -9 TO -6
OFFSET CHANGED FROM -6 TO -6
OFFSET CHANGED FROM -6 TO -6
OFFSET CHANGED FROM -6 TO -6
OFFSET CHANGED FROM -6 TO -6
OFFSET CHANGED FROM -6 TO -6
OFFSET CHANGED FROM -6 TO -6
OFFSET CHANGED FROM -6 TO -6
OFFSET CHANGED FROM -6 TO -6
OFFSET CHANGED FROM -6 TO -6
OFFSET CHANGED FROM -6 TO -9
OFFSET CHANGED FROM -9 TO -6
OFFSET CHANGED FROM -6 TO -9
OFFSET CHANGED FROM -9 TO -12
OFFSET CHANGED FROM -12 TO -6
OFFSET CHANGED FROM -6 TO -3
OFFSET CHANGED FROM -3 TO -9
OFFSET CHANGED FROM -9 TO -12
OFFSET CHANGED FROM -12 TO -6
OFFSET CHANGED FROM -6 TO -6
OFFSET CHANGED FROM -6 TO -6
OFFSET CHANGED FROM -6 TO -6
OFFSET CHANGED FROM -6 TO -12
OFFSET CHANGED FROM -12 TO -9
OFFSET CHANGED FROM -9 TO -6
OFFSET CHANGED FROM -6 TO -6
OFFSET CHANGED FROM -6 TO -9
OFFSET CHANGED FROM -9 TO -6
OFFSET CHANGED FROM -6 TO -6
OFFSET CHANGED FROM -6 TO -6
OFFSET CHANGED FROM -6 TO -15
OFFSET CHANGED FROM -15 TO -12
OFFSET CHANGED FROM -12 TO -6
OFFSET CHANGED FROM -6 TO -6
OFFSET CHANGED FROM -6 TO -12
OFFSET CHANGED FROM -12 TO -6
OFFSET CHANGED FROM -6 TO -12
OFFSET CHANGED FROM -12 TO -12
OFFSET CHANGED FROM -12 TO -6
OFFSET CHANGED FROM -6 TO -6
OFFSET CHANGED FROM -6 TO -6
OFFSET CHANGED FROM -6 TO -6
OFFSET CHANGED FROM -6 TO -6
OFFSET CHANGED FROM -6 TO -6
OFFSET CHANGED FROM -6 TO -6
OFFSET CHANGED FROM -6 TO -9
PREFETCHING INTO L2 w/ PREFETCH SCORE 31 (MSHR OCC = 28)
OFFSET CHANGED FROM -9 TO -12
OFFSET CHANGED FROM -12 TO -12
PREFETCHING INTO L2 w/ PREFETCH SCORE 31 (MSHR OCC = 28)
OFFSET CHANGED FROM -12 TO -6
OFFSET CHANGED FROM -6 TO -9
OFFSET CHANGED FROM -9 TO -9
OFFSET CHANGED FROM -9 TO -9
OFFSET CHANGED FROM -9 TO -6
OFFSET CHANGED FROM -6 TO -6
OFFSET CHANGED FROM -6 TO -6
OFFSET CHANGED FROM -6 TO -6
OFFSET CHANGED FROM -6 TO -9
OFFSET CHANGED FROM -9 TO -9
OFFSET CHANGED FROM -9 TO -6
OFFSET CHANGED FROM -6 TO -9
OFFSET CHANGED FROM -9 TO -9
OFFSET CHANGED FROM -9 TO -6
OFFSET CHANGED FROM -6 TO -9
OFFSET CHANGED FROM -9 TO -9
OFFSET CHANGED FROM -9 TO -9
OFFSET CHANGED FROM -9 TO -6
OFFSET CHANGED FROM -6 TO -6
OFFSET CHANGED FROM -6 TO -9
OFFSET CHANGED FROM -9 TO -6
OFFSET CHANGED FROM -6 TO -12
OFFSET CHANGED FROM -12 TO -6
OFFSET CHANGED FROM -6 TO -12
OFFSET CHANGED FROM -12 TO -12
OFFSET CHANGED FROM -12 TO -12
OFFSET CHANGED FROM -12 TO -15
OFFSET CHANGED FROM -15 TO -12
OFFSET CHANGED FROM -12 TO -9
OFFSET CHANGED FROM -9 TO -6
OFFSET CHANGED FROM -6 TO -6
OFFSET CHANGED FROM -6 TO -6
OFFSET CHANGED FROM -6 TO -6
OFFSET CHANGED FROM -6 TO -6
OFFSET CHANGED FROM -6 TO -9
OFFSET CHANGED FROM -9 TO -6
OFFSET CHANGED FROM -6 TO -6
OFFSET CHANGED FROM -6 TO -12
OFFSET CHANGED FROM -12 TO -6
OFFSET CHANGED FROM -6 TO -6
OFFSET CHANGED FROM -6 TO -6
OFFSET CHANGED FROM -6 TO -6
OFFSET CHANGED FROM -6 TO -6
OFFSET CHANGED FROM -6 TO -6
OFFSET CHANGED FROM -6 TO -12
OFFSET CHANGED FROM -12 TO -6
OFFSET CHANGED FROM -6 TO -6
OFFSET CHANGED FROM -6 TO -6
OFFSET CHANGED FROM -6 TO -6
OFFSET CHANGED FROM -6 TO -6
OFFSET CHANGED FROM -6 TO -6
OFFSET CHANGED FROM -6 TO -6
OFFSET CHANGED FROM -6 TO -6
OFFSET CHANGED FROM -6 TO -6
OFFSET CHANGED FROM -6 TO -6
OFFSET CHANGED FROM -6 TO -6
OFFSET CHANGED FROM -6 TO -6
OFFSET CHANGED FROM -6 TO -9
OFFSET CHANGED FROM -9 TO -6
OFFSET CHANGED FROM -6 TO -12
OFFSET CHANGED FROM -12 TO -12
OFFSET CHANGED FROM -12 TO -12
OFFSET CHANGED FROM -12 TO -6
OFFSET CHANGED FROM -6 TO -9
OFFSET CHANGED FROM -9 TO -6
OFFSET CHANGED FROM -6 TO -12
OFFSET CHANGED FROM -12 TO -12
OFFSET CHANGED FROM -12 TO -6
OFFSET CHANGED FROM -6 TO -6
OFFSET CHANGED FROM -6 TO -6
OFFSET CHANGED FROM -6 TO -6
OFFSET CHANGED FROM -6 TO -6
OFFSET CHANGED FROM -6 TO -6
OFFSET CHANGED FROM -6 TO -9
OFFSET CHANGED FROM -9 TO -9
OFFSET CHANGED FROM -9 TO -9
OFFSET CHANGED FROM -9 TO -6
OFFSET CHANGED FROM -6 TO -6
OFFSET CHANGED FROM -6 TO -9
OFFSET CHANGED FROM -9 TO -9
OFFSET CHANGED FROM -9 TO -9
OFFSET CHANGED FROM -9 TO -15
OFFSET CHANGED FROM -15 TO -6
OFFSET CHANGED FROM -6 TO -6
OFFSET CHANGED FROM -6 TO -9
OFFSET CHANGED FROM -9 TO -6
OFFSET CHANGED FROM -6 TO -9
OFFSET CHANGED FROM -9 TO -9
OFFSET CHANGED FROM -9 TO -9
OFFSET CHANGED FROM -9 TO -9
OFFSET CHANGED FROM -9 TO -6
OFFSET CHANGED FROM -6 TO -6
OFFSET CHANGED FROM -6 TO -12
OFFSET CHANGED FROM -12 TO -6
OFFSET CHANGED FROM -6 TO -6
OFFSET CHANGED FROM -6 TO -12
OFFSET CHANGED FROM -12 TO -9
OFFSET CHANGED FROM -9 TO -6
OFFSET CHANGED FROM -6 TO -6
OFFSET CHANGED FROM -6 TO -9
OFFSET CHANGED FROM -9 TO -9
OFFSET CHANGED FROM -9 TO -9
OFFSET CHANGED FROM -9 TO -6
OFFSET CHANGED FROM -6 TO -6
OFFSET CHANGED FROM -6 TO -9
OFFSET CHANGED FROM -9 TO -9
OFFSET CHANGED FROM -9 TO -6
OFFSET CHANGED FROM -6 TO -6
OFFSET CHANGED FROM -6 TO -9
OFFSET CHANGED FROM -9 TO -6
OFFSET CHANGED FROM -6 TO -12
OFFSET CHANGED FROM -12 TO -12
OFFSET CHANGED FROM -12 TO -6
OFFSET CHANGED FROM -6 TO -6
OFFSET CHANGED FROM -6 TO -12
OFFSET CHANGED FROM -12 TO -9
OFFSET CHANGED FROM -9 TO -6
OFFSET CHANGED FROM -6 TO -9
OFFSET CHANGED FROM -9 TO -9
OFFSET CHANGED FROM -9 TO -6
OFFSET CHANGED FROM -6 TO -6
OFFSET CHANGED FROM -6 TO -9
OFFSET CHANGED FROM -9 TO -6
OFFSET CHANGED FROM -6 TO -6
OFFSET CHANGED FROM -6 TO -6
OFFSET CHANGED FROM -6 TO -6
OFFSET CHANGED FROM -6 TO -6
OFFSET CHANGED FROM -6 TO -15
OFFSET CHANGED FROM -15 TO -9
OFFSET CHANGED FROM -9 TO -6
OFFSET CHANGED FROM -6 TO -6
OFFSET CHANGED FROM -6 TO -6
OFFSET CHANGED FROM -6 TO -6
OFFSET CHANGED FROM -6 TO -9
OFFSET CHANGED FROM -9 TO -6
OFFSET CHANGED FROM -6 TO -6
OFFSET CHANGED FROM -6 TO -15
OFFSET CHANGED FROM -15 TO -9
OFFSET CHANGED FROM -9 TO -9
OFFSET CHANGED FROM -9 TO -6
OFFSET CHANGED FROM -6 TO -6
OFFSET CHANGED FROM -6 TO -12
OFFSET CHANGED FROM -12 TO -12
OFFSET CHANGED FROM -12 TO -9
OFFSET CHANGED FROM -9 TO -9
OFFSET CHANGED FROM -9 TO -9
OFFSET CHANGED FROM -9 TO -9
OFFSET CHANGED FROM -9 TO -6
OFFSET CHANGED FROM -6 TO -6
OFFSET CHANGED FROM -6 TO -12
OFFSET CHANGED FROM -12 TO -6
PREFETCHING INTO L2 w/ PREFETCH SCORE 31 (MSHR OCC = 29)
PREFETCHING INTO L2 w/ PREFETCH SCORE 31 (MSHR OCC = 29)
OFFSET CHANGED FROM -6 TO -6
OFFSET CHANGED FROM -6 TO -6
OFFSET CHANGED FROM -6 TO -6
OFFSET CHANGED FROM -6 TO -6
OFFSET CHANGED FROM -6 TO -6
OFFSET CHANGED FROM -6 TO -12
OFFSET CHANGED FROM -12 TO -6
OFFSET CHANGED FROM -6 TO -6
OFFSET CHANGED FROM -6 TO -9
OFFSET CHANGED FROM -9 TO -9
OFFSET CHANGED FROM -9 TO -6
OFFSET CHANGED FROM -6 TO -15
OFFSET CHANGED FROM -15 TO -6
OFFSET CHANGED FROM -6 TO -6
OFFSET CHANGED FROM -6 TO -9
OFFSET CHANGED FROM -9 TO -9
OFFSET CHANGED FROM -9 TO -6
OFFSET CHANGED FROM -6 TO -9
OFFSET CHANGED FROM -9 TO -9
OFFSET CHANGED FROM -9 TO -6
OFFSET CHANGED FROM -6 TO -6
OFFSET CHANGED FROM -6 TO -6
OFFSET CHANGED FROM -6 TO -6
OFFSET CHANGED FROM -6 TO -6
OFFSET CHANGED FROM -6 TO -6
OFFSET CHANGED FROM -6 TO -9
OFFSET CHANGED FROM -9 TO -6
OFFSET CHANGED FROM -6 TO -12
OFFSET CHANGED FROM -12 TO -6
OFFSET CHANGED FROM -6 TO -9
OFFSET CHANGED FROM -9 TO -9
OFFSET CHANGED FROM -9 TO -6
OFFSET CHANGED FROM -6 TO -6
OFFSET CHANGED FROM -6 TO -18
OFFSET CHANGED FROM -18 TO -12
OFFSET CHANGED FROM -12 TO -6
OFFSET CHANGED FROM -6 TO -6
OFFSET CHANGED FROM -6 TO -12
OFFSET CHANGED FROM -12 TO -6
OFFSET CHANGED FROM -6 TO -9
OFFSET CHANGED FROM -9 TO -12
OFFSET CHANGED FROM -12 TO -6
OFFSET CHANGED FROM -6 TO -6
OFFSET CHANGED FROM -6 TO -9
OFFSET CHANGED FROM -9 TO -9
OFFSET CHANGED FROM -9 TO -9
OFFSET CHANGED FROM -9 TO -6
OFFSET CHANGED FROM -6 TO -6
OFFSET CHANGED FROM -6 TO -12
OFFSET CHANGED FROM -12 TO -6
OFFSET CHANGED FROM -6 TO -6
OFFSET CHANGED FROM -6 TO -6
OFFSET CHANGED FROM -6 TO -6
OFFSET CHANGED FROM -6 TO -6
OFFSET CHANGED FROM -6 TO -6
OFFSET CHANGED FROM -6 TO -6
OFFSET CHANGED FROM -6 TO -9
OFFSET CHANGED FROM -9 TO -6
OFFSET CHANGED FROM -6 TO -6
OFFSET CHANGED FROM -6 TO -15
OFFSET CHANGED FROM -15 TO -9
OFFSET CHANGED FROM -9 TO -6
OFFSET CHANGED FROM -6 TO -15
OFFSET CHANGED FROM -15 TO -12
OFFSET CHANGED FROM -12 TO -6
OFFSET CHANGED FROM -6 TO -6
OFFSET CHANGED FROM -6 TO -12
OFFSET CHANGED FROM -12 TO -6
OFFSET CHANGED FROM -6 TO -6
OFFSET CHANGED FROM -6 TO -6
OFFSET CHANGED FROM -6 TO -9
OFFSET CHANGED FROM -9 TO -6
OFFSET CHANGED FROM -6 TO -9
OFFSET CHANGED FROM -9 TO -6
OFFSET CHANGED FROM -6 TO -6
OFFSET CHANGED FROM -6 TO -6
OFFSET CHANGED FROM -6 TO -6
OFFSET CHANGED FROM -6 TO -6
OFFSET CHANGED FROM -6 TO -9
OFFSET CHANGED FROM -9 TO -6
OFFSET CHANGED FROM -6 TO -6
OFFSET CHANGED FROM -6 TO -6
OFFSET CHANGED FROM -6 TO -6
OFFSET CHANGED FROM -6 TO -6
OFFSET CHANGED FROM -6 TO -6
OFFSET CHANGED FROM -6 TO -15
OFFSET CHANGED FROM -15 TO -15
OFFSET CHANGED FROM -15 TO -15
OFFSET CHANGED FROM -15 TO -12
OFFSET CHANGED FROM -12 TO -9
PREFETCHING INTO L2 w/ PREFETCH SCORE 31 (MSHR OCC = 28)
PREFETCHING INTO L2 w/ PREFETCH SCORE 31 (MSHR OCC = 28)
PREFETCHING INTO L2 w/ PREFETCH SCORE 31 (MSHR OCC = 31)
OFFSET CHANGED FROM -9 TO -6
OFFSET CHANGED FROM -6 TO -6
OFFSET CHANGED FROM -6 TO -6
OFFSET CHANGED FROM -6 TO -9
OFFSET CHANGED FROM -9 TO -9
OFFSET CHANGED FROM -9 TO -15
OFFSET CHANGED FROM -15 TO -12
OFFSET CHANGED FROM -12 TO -6
OFFSET CHANGED FROM -6 TO -15
OFFSET CHANGED FROM -15 TO -12
OFFSET CHANGED FROM -12 TO -6
OFFSET CHANGED FROM -6 TO -9
OFFSET CHANGED FROM -9 TO -12
OFFSET CHANGED FROM -12 TO -6
OFFSET CHANGED FROM -6 TO -6
OFFSET CHANGED FROM -6 TO -6
OFFSET CHANGED FROM -6 TO -9
OFFSET CHANGED FROM -9 TO -6
OFFSET CHANGED FROM -6 TO -9
OFFSET CHANGED FROM -9 TO -6
OFFSET CHANGED FROM -6 TO -6
OFFSET CHANGED FROM -6 TO -6
OFFSET CHANGED FROM -6 TO -12
OFFSET CHANGED FROM -12 TO -9
OFFSET CHANGED FROM -9 TO -6
OFFSET CHANGED FROM -6 TO -9
[...]
OFFSET CHANGED FROM -9 TO -9
OFFSET CHANGED FROM -9 TO -6
OFFSET CHANGED FROM -6 TO -9
OFFSET CHANGED FROM -9 TO -9
OFFSET CHANGED FROM -9 TO -9
OFFSET CHANGED FROM -9 TO -6
OFFSET CHANGED FROM -6 TO -6
OFFSET CHANGED FROM -6 TO -12
OFFSET CHANGED FROM -12 TO -6
OFFSET CHANGED FROM -6 TO -12
OFFSET CHANGED FROM -12 TO -9
OFFSET CHANGED FROM -9 TO -6
OFFSET CHANGED FROM -6 TO -6
OFFSET CHANGED FROM -6 TO -9
OFFSET CHANGED FROM -9 TO -6
OFFSET CHANGED FROM -6 TO -15
OFFSET CHANGED FROM -15 TO -15
OFFSET CHANGED FROM -15 TO -9
OFFSET CHANGED FROM -9 TO -15
OFFSET CHANGED FROM -15 TO -12
OFFSET CHANGED FROM -12 TO -6
OFFSET CHANGED FROM -6 TO -9
OFFSET CHANGED FROM -9 TO -9
OFFSET CHANGED FROM -9 TO -6
OFFSET CHANGED FROM -6 TO -6
OFFSET CHANGED FROM -6 TO -12
OFFSET CHANGED FROM -12 TO -6
OFFSET CHANGED FROM -6 TO -6
OFFSET CHANGED FROM -6 TO -6
OFFSET CHANGED FROM -6 TO -6
OFFSET CHANGED FROM -6 TO -9
OFFSET CHANGED FROM -9 TO -9
OFFSET CHANGED FROM -9 TO -6
OFFSET CHANGED FROM -6 TO -6
OFFSET CHANGED FROM -6 TO -9
OFFSET CHANGED FROM -9 TO -6
OFFSET CHANGED FROM -6 TO -6
OFFSET CHANGED FROM -6 TO -9
OFFSET CHANGED FROM -9 TO -6
OFFSET CHANGED FROM -6 TO -6
OFFSET CHANGED FROM -6 TO -9
OFFSET CHANGED FROM -9 TO -9
OFFSET CHANGED FROM -9 TO -6
OFFSET CHANGED FROM -6 TO -6
OFFSET CHANGED FROM -6 TO -9
OFFSET CHANGED FROM -9 TO -6
OFFSET CHANGED FROM -6 TO -6
OFFSET CHANGED FROM -6 TO -6
OFFSET CHANGED FROM -6 TO -6
OFFSET CHANGED FROM -6 TO -6
OFFSET CHANGED FROM -6 TO -9
OFFSET CHANGED FROM -9 TO -6
OFFSET CHANGED FROM -6 TO -9
OFFSET CHANGED FROM -9 TO -6
OFFSET CHANGED FROM -6 TO -6
OFFSET CHANGED FROM -6 TO -6
OFFSET CHANGED FROM -6 TO -6
OFFSET CHANGED FROM -6 TO -9
OFFSET CHANGED FROM -9 TO -9
OFFSET CHANGED FROM -9 TO -18
OFFSET CHANGED FROM -18 TO -9
OFFSET CHANGED FROM -9 TO -9
OFFSET CHANGED FROM -9 TO -6
OFFSET CHANGED FROM -6 TO -6
OFFSET CHANGED FROM -6 TO -6
OFFSET CHANGED FROM -6 TO -6
OFFSET CHANGED FROM -6 TO -6
OFFSET CHANGED FROM -6 TO -6
OFFSET CHANGED FROM -6 TO -6
OFFSET CHANGED FROM -6 TO -12
OFFSET CHANGED FROM -12 TO -12
OFFSET CHANGED FROM -12 TO -9
OFFSET CHANGED FROM -9 TO -6
OFFSET CHANGED FROM -6 TO -12
OFFSET CHANGED FROM -12 TO -9
OFFSET CHANGED FROM -9 TO -6
OFFSET CHANGED FROM -6 TO -6
OFFSET CHANGED FROM -6 TO -6
OFFSET CHANGED FROM -6 TO -6
OFFSET CHANGED FROM -6 TO -6
OFFSET CHANGED FROM -6 TO -6
OFFSET CHANGED FROM -6 TO -6
OFFSET CHANGED FROM -6 TO -6
OFFSET CHANGED FROM -6 TO -6
OFFSET CHANGED FROM -6 TO -6
OFFSET CHANGED FROM -6 TO -9
OFFSET CHANGED FROM -9 TO -9
OFFSET CHANGED FROM -9 TO -6
OFFSET CHANGED FROM -6 TO -6
OFFSET CHANGED FROM -6 TO -6
OFFSET CHANGED FROM -6 TO -6
OFFSET CHANGED FROM -6 TO -6
OFFSET CHANGED FROM -6 TO -6
OFFSET CHANGED FROM -6 TO -6
OFFSET CHANGED FROM -6 TO -6
OFFSET CHANGED FROM -6 TO -12
OFFSET CHANGED FROM -12 TO -6
OFFSET CHANGED FROM -6 TO -6
OFFSET CHANGED FROM -6 TO -9
OFFSET CHANGED FROM -9 TO -6
OFFSET CHANGED FROM -6 TO -6
OFFSET CHANGED FROM -6 TO -9
OFFSET CHANGED FROM -9 TO -15
OFFSET CHANGED FROM -15 TO -12
PREFETCHING INTO L2 w/ PREFETCH SCORE 31 (MSHR OCC = 28)
PREFETCHING INTO L2 w/ PREFETCH SCORE 31 (MSHR OCC = 29)
PREFETCHING INTO L2 w/ PREFETCH SCORE 31 (MSHR OCC = 30)
OFFSET CHANGED FROM -12 TO -9
OFFSET CHANGED FROM -9 TO -12
OFFSET CHANGED FROM -12 TO -9
OFFSET CHANGED FROM -9 TO -6
OFFSET CHANGED FROM -6 TO -6
OFFSET CHANGED FROM -6 TO -9
OFFSET CHANGED FROM -9 TO -6
OFFSET CHANGED FROM -6 TO -12
OFFSET CHANGED FROM -12 TO -6
OFFSET CHANGED FROM -6 TO -6
OFFSET CHANGED FROM -6 TO -12
OFFSET CHANGED FROM -12 TO -12
OFFSET CHANGED FROM -12 TO -6
OFFSET CHANGED FROM -6 TO -12
OFFSET CHANGED FROM -12 TO -12
OFFSET CHANGED FROM -12 TO -12
OFFSET CHANGED FROM -12 TO -12
OFFSET CHANGED FROM -12 TO -9
OFFSET CHANGED FROM -9 TO -6
OFFSET CHANGED FROM -6 TO -6
OFFSET CHANGED FROM -6 TO -9
OFFSET CHANGED FROM -9 TO -6
OFFSET CHANGED FROM -6 TO -6
OFFSET CHANGED FROM -6 TO -12
OFFSET CHANGED FROM -12 TO -12
OFFSET CHANGED FROM -12 TO -9
OFFSET CHANGED FROM -9 TO -6
OFFSET CHANGED FROM -6 TO -12
OFFSET CHANGED FROM -12 TO -15
OFFSET CHANGED FROM -15 TO -15
OFFSET CHANGED FROM -15 TO -9
OFFSET CHANGED FROM -9 TO -6
OFFSET CHANGED FROM -6 TO -9
OFFSET CHANGED FROM -9 TO -6
OFFSET CHANGED FROM -6 TO -6
OFFSET CHANGED FROM -6 TO -9
OFFSET CHANGED FROM -9 TO -9
OFFSET CHANGED FROM -9 TO -6
OFFSET CHANGED FROM -6 TO -6
OFFSET CHANGED FROM -6 TO -9
OFFSET CHANGED FROM -9 TO -6
OFFSET CHANGED FROM -6 TO -6
OFFSET CHANGED FROM -6 TO -9
OFFSET CHANGED FROM -9 TO -9
OFFSET CHANGED FROM -9 TO -9
OFFSET CHANGED FROM -9 TO -9
OFFSET CHANGED FROM -9 TO -12
OFFSET CHANGED FROM -12 TO -6
OFFSET CHANGED FROM -6 TO -3
Heartbeat CPU 0 instructions: 280000000 cycles: 539970309 heartbeat IPC: 0.329691 cumulative IPC: 0.443091 (Simulation time: 0 hr 17 min 20 sec) 
OFFSET CHANGED FROM -3 TO -3
OFFSET CHANGED FROM -3 TO -6
OFFSET CHANGED FROM -6 TO -6
OFFSET CHANGED FROM -6 TO -6
OFFSET CHANGED FROM -6 TO -6
OFFSET CHANGED FROM -6 TO -9
OFFSET CHANGED FROM -9 TO -6
OFFSET CHANGED FROM -6 TO -3
OFFSET CHANGED FROM -3 TO -6
OFFSET CHANGED FROM -6 TO -12
OFFSET CHANGED FROM -12 TO -12
OFFSET CHANGED FROM -12 TO -12
OFFSET CHANGED FROM -12 TO -9
OFFSET CHANGED FROM -9 TO -6
OFFSET CHANGED FROM -6 TO -3
OFFSET CHANGED FROM -3 TO -3
OFFSET CHANGED FROM -3 TO -6
OFFSET CHANGED FROM -6 TO -6
OFFSET CHANGED FROM -6 TO -6
OFFSET CHANGED FROM -6 TO -6
OFFSET CHANGED FROM -6 TO -6
OFFSET CHANGED FROM -6 TO -6
OFFSET CHANGED FROM -6 TO -6
OFFSET CHANGED FROM -6 TO -9
OFFSET CHANGED FROM -9 TO -9
OFFSET CHANGED FROM -9 TO -6
OFFSET CHANGED FROM -6 TO -6
OFFSET CHANGED FROM -6 TO -9
OFFSET CHANGED FROM -9 TO -9
OFFSET CHANGED FROM -9 TO -15
OFFSET CHANGED FROM -15 TO -6
OFFSET CHANGED FROM -6 TO -9
OFFSET CHANGED FROM -9 TO -9
OFFSET CHANGED FROM -9 TO -6
OFFSET CHANGED FROM -6 TO -6
OFFSET CHANGED FROM -6 TO -9
OFFSET CHANGED FROM -9 TO -9
OFFSET CHANGED FROM -9 TO -6
OFFSET CHANGED FROM -6 TO -6
OFFSET CHANGED FROM -6 TO -6
OFFSET CHANGED FROM -6 TO -6
OFFSET CHANGED FROM -6 TO -9
OFFSET CHANGED FROM -9 TO -9
OFFSET CHANGED FROM -9 TO -6
OFFSET CHANGED FROM -6 TO -9
OFFSET CHANGED FROM -9 TO -9
OFFSET CHANGED FROM -9 TO -6
OFFSET CHANGED FROM -6 TO -9
OFFSET CHANGED FROM -9 TO -12
OFFSET CHANGED FROM -12 TO -9
OFFSET CHANGED FROM -9 TO -15
OFFSET CHANGED FROM -15 TO -12
OFFSET CHANGED FROM -12 TO -12
OFFSET CHANGED FROM -12 TO -3
OFFSET CHANGED FROM -3 TO -12
OFFSET CHANGED FROM -12 TO -9
OFFSET CHANGED FROM -9 TO -9
OFFSET CHANGED FROM -9 TO -6
OFFSET CHANGED FROM -6 TO -6
OFFSET CHANGED FROM -6 TO -6
OFFSET CHANGED FROM -6 TO -6
OFFSET CHANGED FROM -6 TO -3
OFFSET CHANGED FROM -3 TO -6
OFFSET CHANGED FROM -6 TO -6
OFFSET CHANGED FROM -6 TO -9
OFFSET CHANGED FROM -9 TO -9
OFFSET CHANGED FROM -9 TO -12
OFFSET CHANGED FROM -12 TO -6
OFFSET CHANGED FROM -6 TO -6
OFFSET CHANGED FROM -6 TO -6
OFFSET CHANGED FROM -6 TO -9
OFFSET CHANGED FROM -9 TO -6
OFFSET CHANGED FROM -6 TO -6
OFFSET CHANGED FROM -6 TO -6
OFFSET CHANGED FROM -6 TO -9
OFFSET CHANGED FROM -9 TO -6
OFFSET CHANGED FROM -6 TO -6
OFFSET CHANGED FROM -6 TO -6
OFFSET CHANGED FROM -6 TO -6
OFFSET CHANGED FROM -6 TO -6
OFFSET CHANGED FROM -6 TO -3
OFFSET CHANGED FROM -3 TO -9
OFFSET CHANGED FROM -9 TO -9
OFFSET CHANGED FROM -9 TO -9
OFFSET CHANGED FROM -9 TO -6
OFFSET CHANGED FROM -6 TO -6
OFFSET CHANGED FROM -6 TO -6
OFFSET CHANGED FROM -6 TO -6
OFFSET CHANGED FROM -6 TO -6
OFFSET CHANGED FROM -6 TO -6
OFFSET CHANGED FROM -6 TO -6
OFFSET CHANGED FROM -6 TO -9
OFFSET CHANGED FROM -9 TO -9
OFFSET CHANGED FROM -9 TO -12
OFFSET CHANGED FROM -12 TO -6
OFFSET CHANGED FROM -6 TO -3
OFFSET CHANGED FROM -3 TO -3
OFFSET CHANGED FROM -3 TO -9
OFFSET CHANGED FROM -9 TO -3
Heartbeat CPU 0 instructions: 290000000 cycles: 552708688 heartbeat IPC: 0.785029 cumulative IPC: 0.451281 (Simulation time: 0 hr 17 min 49 sec) 
OFFSET CHANGED FROM -3 TO -6
OFFSET CHANGED FROM -6 TO -6
OFFSET CHANGED FROM -6 TO -6
OFFSET CHANGED FROM -6 TO -3
OFFSET CHANGED FROM -3 TO -3
OFFSET CHANGED FROM -3 TO -3
OFFSET CHANGED FROM -3 TO -3
OFFSET CHANGED FROM -3 TO -3
OFFSET CHANGED FROM -3 TO -3
OFFSET CHANGED FROM -3 TO -6
OFFSET CHANGED FROM -6 TO -15
OFFSET CHANGED FROM -15 TO -12
OFFSET CHANGED FROM -12 TO -6
OFFSET CHANGED FROM -6 TO -6
OFFSET CHANGED FROM -6 TO -9
OFFSET CHANGED FROM -9 TO -15
OFFSET CHANGED FROM -15 TO -9
OFFSET CHANGED FROM -9 TO -6
OFFSET CHANGED FROM -6 TO -6
OFFSET CHANGED FROM -6 TO -6
OFFSET CHANGED FROM -6 TO -6
OFFSET CHANGED FROM -6 TO -6
OFFSET CHANGED FROM -6 TO -15
OFFSET CHANGED FROM -15 TO -15
OFFSET CHANGED FROM -15 TO -12
OFFSET CHANGED FROM -12 TO -9
OFFSET CHANGED FROM -9 TO -6
OFFSET CHANGED FROM -6 TO -6
OFFSET CHANGED FROM -6 TO -9
OFFSET CHANGED FROM -9 TO -9
OFFSET CHANGED FROM -9 TO -9
OFFSET CHANGED FROM -9 TO -9
OFFSET CHANGED FROM -9 TO -9
OFFSET CHANGED FROM -9 TO -6
OFFSET CHANGED FROM -6 TO -9
OFFSET CHANGED FROM -9 TO -9
OFFSET CHANGED FROM -9 TO -6
OFFSET CHANGED FROM -6 TO -6
OFFSET CHANGED FROM -6 TO -6
OFFSET CHANGED FROM -6 TO -12
OFFSET CHANGED FROM -12 TO -12
OFFSET CHANGED FROM -12 TO -6
OFFSET CHANGED FROM -6 TO -6
OFFSET CHANGED FROM -6 TO -6
OFFSET CHANGED FROM -6 TO -9
OFFSET CHANGED FROM -9 TO -9
OFFSET CHANGED FROM -9 TO -9
OFFSET CHANGED FROM -9 TO -9
OFFSET CHANGED FROM -9 TO -6
OFFSET CHANGED FROM -6 TO -6
OFFSET CHANGED FROM -6 TO -6
OFFSET CHANGED FROM -6 TO -6
OFFSET CHANGED FROM -6 TO -9
OFFSET CHANGED FROM -9 TO -9
OFFSET CHANGED FROM -9 TO -6
OFFSET CHANGED FROM -6 TO -6
OFFSET CHANGED FROM -6 TO -6
OFFSET CHANGED FROM -6 TO -6
OFFSET CHANGED FROM -6 TO -9
OFFSET CHANGED FROM -9 TO -6
OFFSET CHANGED FROM -6 TO -6
OFFSET CHANGED FROM -6 TO -6
OFFSET CHANGED FROM -6 TO -6
OFFSET CHANGED FROM -6 TO -6
OFFSET CHANGED FROM -6 TO -6
OFFSET CHANGED FROM -6 TO -6
OFFSET CHANGED FROM -6 TO -6
OFFSET CHANGED FROM -6 TO -6
OFFSET CHANGED FROM -6 TO -6
OFFSET CHANGED FROM -6 TO -6
OFFSET CHANGED FROM -6 TO -9
OFFSET CHANGED FROM -9 TO -6
OFFSET CHANGED FROM -6 TO -6
OFFSET CHANGED FROM -6 TO -6
OFFSET CHANGED FROM -6 TO -6
OFFSET CHANGED FROM -6 TO -6
OFFSET CHANGED FROM -6 TO -9
OFFSET CHANGED FROM -9 TO -9
OFFSET CHANGED FROM -9 TO -12
OFFSET CHANGED FROM -12 TO -6
OFFSET CHANGED FROM -6 TO -6
OFFSET CHANGED FROM -6 TO -12
OFFSET CHANGED FROM -12 TO -9
OFFSET CHANGED FROM -9 TO -6
OFFSET CHANGED FROM -6 TO -12
OFFSET CHANGED FROM -12 TO -9
OFFSET CHANGED FROM -9 TO -6
OFFSET CHANGED FROM -6 TO -9
OFFSET CHANGED FROM -9 TO -6
OFFSET CHANGED FROM -6 TO -6
OFFSET CHANGED FROM -6 TO -6
OFFSET CHANGED FROM -6 TO -6
OFFSET CHANGED FROM -6 TO -6
OFFSET CHANGED FROM -6 TO -6
OFFSET CHANGED FROM -6 TO -6
OFFSET CHANGED FROM -6 TO -6
OFFSET CHANGED FROM -6 TO -6
OFFSET CHANGED FROM -6 TO -9
OFFSET CHANGED FROM -9 TO -6
OFFSET CHANGED FROM -6 TO -12
OFFSET CHANGED FROM -12 TO -12
OFFSET CHANGED FROM -12 TO -6
OFFSET CHANGED FROM -6 TO -9
OFFSET CHANGED FROM -9 TO -6
OFFSET CHANGED FROM -6 TO -9
OFFSET CHANGED FROM -9 TO -6
OFFSET CHANGED FROM -6 TO -6
OFFSET CHANGED FROM -6 TO -9
OFFSET CHANGED FROM -9 TO -6
OFFSET CHANGED FROM -6 TO -6
OFFSET CHANGED FROM -6 TO -6
OFFSET CHANGED FROM -6 TO -9
OFFSET CHANGED FROM -9 TO -9
OFFSET CHANGED FROM -9 TO -6
OFFSET CHANGED FROM -6 TO -6
OFFSET CHANGED FROM -6 TO -6
OFFSET CHANGED FROM -6 TO -6
OFFSET CHANGED FROM -6 TO -6
OFFSET CHANGED FROM -6 TO -9
OFFSET CHANGED FROM -9 TO -9
OFFSET CHANGED FROM -9 TO -9
OFFSET CHANGED FROM -9 TO -9
OFFSET CHANGED FROM -9 TO -9
OFFSET CHANGED FROM -9 TO -6
OFFSET CHANGED FROM -6 TO -6
OFFSET CHANGED FROM -6 TO -12
OFFSET CHANGED FROM -12 TO -12
OFFSET CHANGED FROM -12 TO -6
OFFSET CHANGED FROM -6 TO -6
OFFSET CHANGED FROM -6 TO -9
OFFSET CHANGED FROM -9 TO -9
OFFSET CHANGED FROM -9 TO -6
OFFSET CHANGED FROM -6 TO -6
OFFSET CHANGED FROM -6 TO -9
OFFSET CHANGED FROM -9 TO -6
OFFSET CHANGED FROM -6 TO -6
OFFSET CHANGED FROM -6 TO -6
OFFSET CHANGED FROM -6 TO -6
OFFSET CHANGED FROM -6 TO -6
OFFSET CHANGED FROM -6 TO -15
OFFSET CHANGED FROM -15 TO -12
OFFSET CHANGED FROM -12 TO -6
OFFSET CHANGED FROM -6 TO -6
OFFSET CHANGED FROM -6 TO -9
OFFSET CHANGED FROM -9 TO -9
OFFSET CHANGED FROM -9 TO -9
OFFSET CHANGED FROM -9 TO -9
OFFSET CHANGED FROM -9 TO -6
OFFSET CHANGED FROM -6 TO -6
OFFSET CHANGED FROM -6 TO -6
OFFSET CHANGED FROM -6 TO -9
OFFSET CHANGED FROM -9 TO -9
OFFSET CHANGED FROM -9 TO -12
OFFSET CHANGED FROM -12 TO -12
OFFSET CHANGED FROM -12 TO -9
OFFSET CHANGED FROM -9 TO -6
OFFSET CHANGED FROM -6 TO -6
OFFSET CHANGED FROM -6 TO -6
OFFSET CHANGED FROM -6 TO -6
OFFSET CHANGED FROM -6 TO -6
OFFSET CHANGED FROM -6 TO -9
OFFSET CHANGED FROM -9 TO -6
OFFSET CHANGED FROM -6 TO -6
OFFSET CHANGED FROM -6 TO -6
OFFSET CHANGED FROM -6 TO -6
OFFSET CHANGED FROM -6 TO -9
OFFSET CHANGED FROM -9 TO -12
OFFSET CHANGED FROM -12 TO -9
OFFSET CHANGED FROM -9 TO -9
OFFSET CHANGED FROM -9 TO -9
OFFSET CHANGED FROM -9 TO -6
OFFSET CHANGED FROM -6 TO -9
OFFSET CHANGED FROM -9 TO -9
OFFSET CHANGED FROM -9 TO -6
OFFSET CHANGED FROM -6 TO -6
OFFSET CHANGED FROM -6 TO -6
OFFSET CHANGED FROM -6 TO -12
OFFSET CHANGED FROM -12 TO -9
OFFSET CHANGED FROM -9 TO -6
OFFSET CHANGED FROM -6 TO -6
OFFSET CHANGED FROM -6 TO -9
OFFSET CHANGED FROM -9 TO -6
OFFSET CHANGED FROM -6 TO -6
OFFSET CHANGED FROM -6 TO -9
OFFSET CHANGED FROM -9 TO -9
OFFSET CHANGED FROM -9 TO -15
OFFSET CHANGED FROM -15 TO -9
OFFSET CHANGED FROM -9 TO -6
OFFSET CHANGED FROM -6 TO -6
OFFSET CHANGED FROM -6 TO -6
OFFSET CHANGED FROM -6 TO -12
OFFSET CHANGED FROM -12 TO -12
OFFSET CHANGED FROM -12 TO -6
OFFSET CHANGED FROM -6 TO -6
OFFSET CHANGED FROM -6 TO -9
OFFSET CHANGED FROM -9 TO -9
OFFSET CHANGED FROM -9 TO -15
OFFSET CHANGED FROM -15 TO -6
OFFSET CHANGED FROM -6 TO -6
OFFSET CHANGED FROM -6 TO -6
OFFSET CHANGED FROM -6 TO -12
OFFSET CHANGED FROM -12 TO -6
OFFSET CHANGED FROM -6 TO -9
OFFSET CHANGED FROM -9 TO -6
OFFSET CHANGED FROM -6 TO -9
OFFSET CHANGED FROM -9 TO -6
OFFSET CHANGED FROM -6 TO -3
OFFSET CHANGED FROM -3 TO -9
OFFSET CHANGED FROM -9 TO -6
OFFSET CHANGED FROM -6 TO -9
OFFSET CHANGED FROM -9 TO -6
OFFSET CHANGED FROM -6 TO -6
OFFSET CHANGED FROM -6 TO -6
OFFSET CHANGED FROM -6 TO -6
OFFSET CHANGED FROM -6 TO -6
OFFSET CHANGED FROM -6 TO -12
OFFSET CHANGED FROM -12 TO -6
OFFSET CHANGED FROM -6 TO -15
OFFSET CHANGED FROM -15 TO -6
OFFSET CHANGED FROM -6 TO -6
OFFSET CHANGED FROM -6 TO -9
OFFSET CHANGED FROM -9 TO -9
OFFSET CHANGED FROM -9 TO -6
OFFSET CHANGED FROM -6 TO -6
OFFSET CHANGED FROM -6 TO -6
OFFSET CHANGED FROM -6 TO -9
OFFSET CHANGED FROM -9 TO -6
OFFSET CHANGED FROM -6 TO -12
OFFSET CHANGED FROM -12 TO -6
OFFSET CHANGED FROM -6 TO -6
OFFSET CHANGED FROM -6 TO -12
OFFSET CHANGED FROM -12 TO -6
OFFSET CHANGED FROM -6 TO -6
OFFSET CHANGED FROM -6 TO -12
OFFSET CHANGED FROM -12 TO -9
OFFSET CHANGED FROM -9 TO -3
OFFSET CHANGED FROM -3 TO -9
OFFSET CHANGED FROM -9 TO -6
OFFSET CHANGED FROM -6 TO -9
OFFSET CHANGED FROM -9 TO -3
OFFSET CHANGED FROM -3 TO -3
OFFSET CHANGED FROM -3 TO -3
OFFSET CHANGED FROM -3 TO -6
OFFSET CHANGED FROM -6 TO -6
OFFSET CHANGED FROM -6 TO -6
OFFSET CHANGED FROM -6 TO -9
OFFSET CHANGED FROM -9 TO -9
OFFSET CHANGED FROM -9 TO -6
OFFSET CHANGED FROM -6 TO -6
OFFSET CHANGED FROM -6 TO -9
OFFSET CHANGED FROM -9 TO -6
OFFSET CHANGED FROM -6 TO -6
OFFSET CHANGED FROM -6 TO -6
OFFSET CHANGED FROM -6 TO -6
OFFSET CHANGED FROM -6 TO -3
OFFSET CHANGED FROM -3 TO -9
OFFSET CHANGED FROM -9 TO -9
OFFSET CHANGED FROM -9 TO -6
OFFSET CHANGED FROM -6 TO -12
OFFSET CHANGED FROM -12 TO -6
OFFSET CHANGED FROM -6 TO -12
OFFSET CHANGED FROM -12 TO -9
OFFSET CHANGED FROM -9 TO -9
OFFSET CHANGED FROM -9 TO -6
OFFSET CHANGED FROM -6 TO -6
OFFSET CHANGED FROM -6 TO -6
OFFSET CHANGED FROM -6 TO -9
OFFSET CHANGED FROM -9 TO -9
OFFSET CHANGED FROM -9 TO -6
OFFSET CHANGED FROM -6 TO -6
OFFSET CHANGED FROM -6 TO -6
OFFSET CHANGED FROM -6 TO -12
OFFSET CHANGED FROM -12 TO -9
OFFSET CHANGED FROM -9 TO -9
OFFSET CHANGED FROM -9 TO -6
OFFSET CHANGED FROM -6 TO -6
OFFSET CHANGED FROM -6 TO -9
OFFSET CHANGED FROM -9 TO -6
OFFSET CHANGED FROM -6 TO -6
OFFSET CHANGED FROM -6 TO -6
OFFSET CHANGED FROM -6 TO -6
OFFSET CHANGED FROM -6 TO -6
OFFSET CHANGED FROM -6 TO -9
OFFSET CHANGED FROM -9 TO -9
OFFSET CHANGED FROM -9 TO -6
OFFSET CHANGED FROM -6 TO -6
OFFSET CHANGED FROM -6 TO -6
OFFSET CHANGED FROM -6 TO -9
OFFSET CHANGED FROM -9 TO -9
OFFSET CHANGED FROM -9 TO -9
OFFSET CHANGED FROM -9 TO -6
OFFSET CHANGED FROM -6 TO -6
OFFSET CHANGED FROM -6 TO -6
OFFSET CHANGED FROM -6 TO -6
OFFSET CHANGED FROM -6 TO -6
OFFSET CHANGED FROM -6 TO -12
OFFSET CHANGED FROM -12 TO -12
OFFSET CHANGED FROM -12 TO -12
OFFSET CHANGED FROM -12 TO -12
OFFSET CHANGED FROM -12 TO -6
OFFSET CHANGED FROM -6 TO -15
OFFSET CHANGED FROM -15 TO -12
OFFSET CHANGED FROM -12 TO -6
OFFSET CHANGED FROM -6 TO -6
OFFSET CHANGED FROM -6 TO -6
OFFSET CHANGED FROM -6 TO -6
OFFSET CHANGED FROM -6 TO -6
OFFSET CHANGED FROM -6 TO -6
OFFSET CHANGED FROM -6 TO -6
OFFSET CHANGED FROM -6 TO -9
OFFSET CHANGED FROM -9 TO -9
OFFSET CHANGED FROM -9 TO -6
Heartbeat CPU 0 instructions: 300000001 cycles: 574695507 heartbeat IPC: 0.454818 cumulative IPC: 0.451421 (Simulation time: 0 hr 18 min 26 sec) 
Finished CPU 0 instructions: 250000002 cycles: 553806486 cumulative IPC: 0.451421 (Simulation time: 0 hr 18 min 26 sec) 

ChampSim completed all CPUs

Region of Interest Statistics

CPU 0 cumulative IPC: 0.451421 instructions: 250000002 cycles: 553806486
L1D TOTAL     ACCESS:   90352922  HIT:   75852545  MISS:   14500377
L1D LOAD      ACCESS:   45920357  HIT:   31423313  MISS:   14497044
L1D RFO       ACCESS:   44432565  HIT:   44429232  MISS:       3333
L1D PREFETCH  ACCESS:          0  HIT:          0  MISS:          0
L1D WRITEBACK ACCESS:          0  HIT:          0  MISS:          0
L1D PREFETCH  REQUESTED:          0  ISSUED:          0  USEFUL:          0  USELESS:          0
L1D AVERAGE MISS LATENCY: 48.368 cycles
L1I TOTAL     ACCESS:   52522502  HIT:   52522502  MISS:          0
L1I LOAD      ACCESS:   52522502  HIT:   52522502  MISS:          0
L1I RFO       ACCESS:          0  HIT:          0  MISS:          0
L1I PREFETCH  ACCESS:          0  HIT:          0  MISS:          0
L1I WRITEBACK ACCESS:          0  HIT:          0  MISS:          0
L1I PREFETCH  REQUESTED:          0  ISSUED:          0  USEFUL:          0  USELESS:          0
L1I AVERAGE MISS LATENCY: -nan cycles
L2C TOTAL     ACCESS:   26116308  HIT:   11076255  MISS:   15040053
L2C LOAD      ACCESS:   14496936  HIT:   10130942  MISS:    4365994
L2C RFO       ACCESS:       3333  HIT:       2509  MISS:        824
L2C PREFETCH  ACCESS:   11114726  HIT:     443998  MISS:   10670728
L2C WRITEBACK ACCESS:     501313  HIT:     498806  MISS:       2507
L2C PREFETCH  REQUESTED:   12744923  ISSUED:   12744923  USEFUL:   10041832  USELESS:     628984
L2C AVERAGE MISS LATENCY: 127.215 cycles
LLC TOTAL     ACCESS:   15469861  HIT:     462886  MISS:   15006975
LLC LOAD      ACCESS:    2740226  HIT:      12861  MISS:    2727365
LLC RFO       ACCESS:        799  HIT:        344  MISS:        455
LLC PREFETCH  ACCESS:   12296630  HIT:      20416  MISS:   12276214
LLC WRITEBACK ACCESS:     432206  HIT:     429265  MISS:       2941
LLC PREFETCH  REQUESTED:          0  ISSUED:          0  USEFUL:        398  USELESS:   12276722
LLC AVERAGE MISS LATENCY: 105.759 cycles
Major fault: 0 Minor fault: 24751
CPU 0 L1I next line prefetcher final stats
CPU 0 L2C best offset prefetcher final stats

DRAM Statistics
 CHANNEL 0
 RQ ROW_BUFFER_HIT:   11991137  ROW_BUFFER_MISS:    3012784
 DBUS_CONGESTED:    5505846
 WQ ROW_BUFFER_HIT:     132572  ROW_BUFFER_MISS:     289768  FULL:          0

 AVG_CONGESTED_CYCLE: 5

CPU 0 Branch Prediction Accuracy: 98.0342% MPKI: 2.3226 Average ROB Occupancy at Mispredict: 48.8857

Branch types
NOT_BRANCH: 220461838 88.1847%
BRANCH_DIRECT_JUMP: 466020 0.186408%
BRANCH_INDIRECT: 0 0%
BRANCH_CONDITIONAL: 28606418 11.4426%
BRANCH_DIRECT_CALL: 232839 0.0931356%
BRANCH_INDIRECT_CALL: 0 0%
BRANCH_RETURN: 232839 0.0931356%
BRANCH_OTHER: 0 0%

