
*** ChampSim Multicore Out-of-Order Simulator ***

Warmup Instructions: 50000000
Simulation Instructions: 250000000
Number of CPUs: 1
LLC sets: 2048
LLC ways: 16
Off-chip DRAM Size: 4096 MB Channels: 1 Width: 64-bit Data Rate: 3200 MT/s

CPU 0 runs /home/wezelis2/ECE511_Project/ChampSim/dpc3_traces/433.milc-127B.champsimtrace.xz
CPU 0 Bimodal branch predictor
CPU 0 L1I next line prefetcher
INIT BEST RECENT REQUEST TABLE MODULE
INIT DELAY QUEUE MODULE
INIT PREFETCH THROTTLE MODULE
INIT OFFSET SCORE MODULE
INIT BEST OFFSET PREFETCHER
OFFSET CHANGED FROM 1 TO 1
OFFSET CHANGED FROM 1 TO 1
OFFSET CHANGED FROM 1 TO 1
OFFSET CHANGED FROM 1 TO 1
OFFSET CHANGED FROM 1 TO 1
OFFSET CHANGED FROM 1 TO 1
OFFSET CHANGED FROM 1 TO 1
OFFSET CHANGED FROM 1 TO 1
OFFSET CHANGED FROM 1 TO 1
OFFSET CHANGED FROM 1 TO 1
OFFSET CHANGED FROM 1 TO 1
OFFSET CHANGED FROM 1 TO 1
OFFSET CHANGED FROM 1 TO 1
OFFSET CHANGED FROM 1 TO 1
OFFSET CHANGED FROM 1 TO 1
OFFSET CHANGED FROM 1 TO 1
OFFSET CHANGED FROM 1 TO 1
OFFSET CHANGED FROM 1 TO 1
OFFSET CHANGED FROM 1 TO 1
OFFSET CHANGED FROM 1 TO 1
OFFSET CHANGED FROM 1 TO 1
OFFSET CHANGED FROM 1 TO 1
OFFSET CHANGED FROM 1 TO 1
OFFSET CHANGED FROM 1 TO 1
OFFSET CHANGED FROM 1 TO 1
OFFSET CHANGED FROM 1 TO 1
OFFSET CHANGED FROM 1 TO 1
OFFSET CHANGED FROM 1 TO 1
OFFSET CHANGED FROM 1 TO 1
OFFSET CHANGED FROM 1 TO 1
OFFSET CHANGED FROM 1 TO 1
OFFSET CHANGED FROM 1 TO 1
OFFSET CHANGED FROM 1 TO 1
OFFSET CHANGED FROM 1 TO 1
OFFSET CHANGED FROM 1 TO 1
OFFSET CHANGED FROM 1 TO 1
OFFSET CHANGED FROM 1 TO 1
OFFSET CHANGED FROM 1 TO 1
OFFSET CHANGED FROM 1 TO 1
OFFSET CHANGED FROM 1 TO 1
OFFSET CHANGED FROM 1 TO 1
OFFSET CHANGED FROM 1 TO 1
OFFSET CHANGED FROM 1 TO 1
OFFSET CHANGED FROM 1 TO 1
OFFSET CHANGED FROM 1 TO 1
OFFSET CHANGED FROM 1 TO 1
OFFSET CHANGED FROM 1 TO 1
OFFSET CHANGED FROM 1 TO 1
OFFSET CHANGED FROM 1 TO 1
OFFSET CHANGED FROM 1 TO 1
OFFSET CHANGED FROM 1 TO 1
OFFSET CHANGED FROM 1 TO 1
OFFSET CHANGED FROM 1 TO 1
OFFSET CHANGED FROM 1 TO 1
OFFSET CHANGED FROM 1 TO 1
OFFSET CHANGED FROM 1 TO 1
OFFSET CHANGED FROM 1 TO 1
OFFSET CHANGED FROM 1 TO 1
OFFSET CHANGED FROM 1 TO 1
OFFSET CHANGED FROM 1 TO 1
OFFSET CHANGED FROM 1 TO 1
OFFSET CHANGED FROM 1 TO 1
OFFSET CHANGED FROM 1 TO 1
OFFSET CHANGED FROM 1 TO 1
OFFSET CHANGED FROM 1 TO 1
OFFSET CHANGED FROM 1 TO 1
OFFSET CHANGED FROM 1 TO 1
OFFSET CHANGED FROM 1 TO 1
OFFSET CHANGED FROM 1 TO 1
OFFSET CHANGED FROM 1 TO 1
OFFSET CHANGED FROM 1 TO 1
OFFSET CHANGED FROM 1 TO 1
OFFSET CHANGED FROM 1 TO 1
OFFSET CHANGED FROM 1 TO 1
OFFSET CHANGED FROM 1 TO 1
OFFSET CHANGED FROM 1 TO 1
OFFSET CHANGED FROM 1 TO 1
OFFSET CHANGED FROM 1 TO 1
OFFSET CHANGED FROM 1 TO 1
OFFSET CHANGED FROM 1 TO 1
OFFSET CHANGED FROM 1 TO 1
Heartbeat CPU 0 instructions: 10000003 cycles: 3489970 heartbeat IPC: 2.86536 cumulative IPC: 2.86536 (Simulation time: 0 hr 0 min 26 sec) 
OFFSET CHANGED FROM 1 TO 1
OFFSET CHANGED FROM 1 TO 1
OFFSET CHANGED FROM 1 TO 1
OFFSET CHANGED FROM 1 TO 1
OFFSET CHANGED FROM 1 TO 1
OFFSET CHANGED FROM 1 TO 1
OFFSET CHANGED FROM 1 TO 1
OFFSET CHANGED FROM 1 TO 1
OFFSET CHANGED FROM 1 TO 1
OFFSET CHANGED FROM 1 TO 1
OFFSET CHANGED FROM 1 TO 1
OFFSET CHANGED FROM 1 TO 1
OFFSET CHANGED FROM 1 TO 1
OFFSET CHANGED FROM 1 TO 1
OFFSET CHANGED FROM 1 TO 1
OFFSET CHANGED FROM 1 TO 1
OFFSET CHANGED FROM 1 TO 1
OFFSET CHANGED FROM 1 TO 1
OFFSET CHANGED FROM 1 TO 1
OFFSET CHANGED FROM 1 TO 1
OFFSET CHANGED FROM 1 TO 1
OFFSET CHANGED FROM 1 TO 1
OFFSET CHANGED FROM 1 TO 1
OFFSET CHANGED FROM 1 TO 1
OFFSET CHANGED FROM 1 TO 1
OFFSET CHANGED FROM 1 TO 1
OFFSET CHANGED FROM 1 TO 1
OFFSET CHANGED FROM 1 TO 1
OFFSET CHANGED FROM 1 TO 1
OFFSET CHANGED FROM 1 TO 1
OFFSET CHANGED FROM 1 TO 1
OFFSET CHANGED FROM 1 TO 1
OFFSET CHANGED FROM 1 TO 1
OFFSET CHANGED FROM 1 TO 1
OFFSET CHANGED FROM 1 TO 1
OFFSET CHANGED FROM 1 TO 1
OFFSET CHANGED FROM 1 TO 1
OFFSET CHANGED FROM 1 TO 1
OFFSET CHANGED FROM 1 TO 1
OFFSET CHANGED FROM 1 TO 1
OFFSET CHANGED FROM 1 TO 1
OFFSET CHANGED FROM 1 TO 1
OFFSET CHANGED FROM 1 TO 1
OFFSET CHANGED FROM 1 TO 1
OFFSET CHANGED FROM 1 TO 1
OFFSET CHANGED FROM 1 TO 1
OFFSET CHANGED FROM 1 TO 1
OFFSET CHANGED FROM 1 TO 1
OFFSET CHANGED FROM 1 TO 1
OFFSET CHANGED FROM 1 TO 1
OFFSET CHANGED FROM 1 TO 1
OFFSET CHANGED FROM 1 TO 1
OFFSET CHANGED FROM 1 TO 1
OFFSET CHANGED FROM 1 TO 1
OFFSET CHANGED FROM 1 TO 1
OFFSET CHANGED FROM 1 TO 1
OFFSET CHANGED FROM 1 TO 1
OFFSET CHANGED FROM 1 TO 1
OFFSET CHANGED FROM 1 TO 1
OFFSET CHANGED FROM 1 TO 1
OFFSET CHANGED FROM 1 TO 1
OFFSET CHANGED FROM 1 TO 1
OFFSET CHANGED FROM 1 TO 1
OFFSET CHANGED FROM 1 TO 1
OFFSET CHANGED FROM 1 TO 1
OFFSET CHANGED FROM 1 TO 1
OFFSET CHANGED FROM 1 TO 1
OFFSET CHANGED FROM 1 TO 1
OFFSET CHANGED FROM 1 TO 1
OFFSET CHANGED FROM 1 TO 1
OFFSET CHANGED FROM 1 TO 1
OFFSET CHANGED FROM 1 TO 1
OFFSET CHANGED FROM 1 TO 1
OFFSET CHANGED FROM 1 TO 1
OFFSET CHANGED FROM 1 TO 1
OFFSET CHANGED FROM 1 TO 1
OFFSET CHANGED FROM 1 TO 1
OFFSET CHANGED FROM 1 TO 1
Heartbeat CPU 0 instructions: 20000003 cycles: 7007812 heartbeat IPC: 2.84265 cumulative IPC: 2.85396 (Simulation time: 0 hr 0 min 52 sec) 
OFFSET CHANGED FROM 1 TO 1
OFFSET CHANGED FROM 1 TO 1
OFFSET CHANGED FROM 1 TO 1
OFFSET CHANGED FROM 1 TO 1
OFFSET CHANGED FROM 1 TO 2
OFFSET CHANGED FROM 2 TO 4
OFFSET CHANGED FROM 4 TO 3
OFFSET CHANGED FROM 3 TO 6
OFFSET CHANGED FROM 6 TO 5
OFFSET CHANGED FROM 5 TO 2
OFFSET CHANGED FROM 2 TO 1
OFFSET CHANGED FROM 1 TO 4
OFFSET CHANGED FROM 4 TO 2
OFFSET CHANGED FROM 2 TO 2
OFFSET CHANGED FROM 2 TO 1
OFFSET CHANGED FROM 1 TO 3
OFFSET CHANGED FROM 3 TO 2
OFFSET CHANGED FROM 2 TO 2
OFFSET CHANGED FROM 2 TO 4
OFFSET CHANGED FROM 4 TO 2
OFFSET CHANGED FROM 2 TO 2
OFFSET CHANGED FROM 2 TO 1
OFFSET CHANGED FROM 1 TO 4
OFFSET CHANGED FROM 4 TO 2
OFFSET CHANGED FROM 2 TO 1
OFFSET CHANGED FROM 1 TO 4
OFFSET CHANGED FROM 4 TO 3
OFFSET CHANGED FROM 3 TO 2
OFFSET CHANGED FROM 2 TO 6
OFFSET CHANGED FROM 6 TO 5
OFFSET CHANGED FROM 5 TO 2
OFFSET CHANGED FROM 2 TO 2
OFFSET CHANGED FROM 2 TO 3
OFFSET CHANGED FROM 3 TO 2
OFFSET CHANGED FROM 2 TO 1
OFFSET CHANGED FROM 1 TO 3
OFFSET CHANGED FROM 3 TO 4
OFFSET CHANGED FROM 4 TO 2
OFFSET CHANGED FROM 2 TO 1
OFFSET CHANGED FROM 1 TO 4
OFFSET CHANGED FROM 4 TO 2
OFFSET CHANGED FROM 2 TO 2
OFFSET CHANGED FROM 2 TO 1
OFFSET CHANGED FROM 1 TO 3
OFFSET CHANGED FROM 3 TO 3
OFFSET CHANGED FROM 3 TO 1
OFFSET CHANGED FROM 1 TO 1
OFFSET CHANGED FROM 1 TO 3
OFFSET CHANGED FROM 3 TO 4
OFFSET CHANGED FROM 4 TO 6
OFFSET CHANGED FROM 6 TO 3
OFFSET CHANGED FROM 3 TO 2
OFFSET CHANGED FROM 2 TO 4
OFFSET CHANGED FROM 4 TO 3
OFFSET CHANGED FROM 3 TO 3
OFFSET CHANGED FROM 3 TO 3
OFFSET CHANGED FROM 3 TO 4
OFFSET CHANGED FROM 4 TO 1
OFFSET CHANGED FROM 1 TO 4
OFFSET CHANGED FROM 4 TO 2
OFFSET CHANGED FROM 2 TO 2
OFFSET CHANGED FROM 2 TO 2
OFFSET CHANGED FROM 2 TO 3
OFFSET CHANGED FROM 3 TO 2
OFFSET CHANGED FROM 2 TO 2
OFFSET CHANGED FROM 2 TO 3
OFFSET CHANGED FROM 3 TO 3
OFFSET CHANGED FROM 3 TO 1
OFFSET CHANGED FROM 1 TO 1
OFFSET CHANGED FROM 1 TO 5
OFFSET CHANGED FROM 5 TO 4
OFFSET CHANGED FROM 4 TO 4
OFFSET CHANGED FROM 4 TO 3
OFFSET CHANGED FROM 3 TO 3
OFFSET CHANGED FROM 3 TO 1
OFFSET CHANGED FROM 1 TO 1
OFFSET CHANGED FROM 1 TO 3
OFFSET CHANGED FROM 3 TO 3
OFFSET CHANGED FROM 3 TO 1
OFFSET CHANGED FROM 1 TO 4
OFFSET CHANGED FROM 4 TO 5
OFFSET CHANGED FROM 5 TO 8
OFFSET CHANGED FROM 8 TO 6
OFFSET CHANGED FROM 6 TO 5
OFFSET CHANGED FROM 5 TO 5
OFFSET CHANGED FROM 5 TO 1
OFFSET CHANGED FROM 1 TO 1
OFFSET CHANGED FROM 1 TO 2
OFFSET CHANGED FROM 2 TO 1
OFFSET CHANGED FROM 1 TO 1
OFFSET CHANGED FROM 1 TO 4
OFFSET CHANGED FROM 4 TO 2
OFFSET CHANGED FROM 2 TO 2
OFFSET CHANGED FROM 2 TO 3
OFFSET CHANGED FROM 3 TO 3
OFFSET CHANGED FROM 3 TO 1
OFFSET CHANGED FROM 1 TO 1
OFFSET CHANGED FROM 1 TO 1
OFFSET CHANGED FROM 1 TO 2
OFFSET CHANGED FROM 2 TO 2
OFFSET CHANGED FROM 2 TO 1
OFFSET CHANGED FROM 1 TO 1
OFFSET CHANGED FROM 1 TO 1
OFFSET CHANGED FROM 1 TO 1
OFFSET CHANGED FROM 1 TO 1
OFFSET CHANGED FROM 1 TO 1
OFFSET CHANGED FROM 1 TO 1
OFFSET CHANGED FROM 1 TO 1
OFFSET CHANGED FROM 1 TO 1
OFFSET CHANGED FROM 1 TO 1
OFFSET CHANGED FROM 1 TO 1
OFFSET CHANGED FROM 1 TO 1
OFFSET CHANGED FROM 1 TO 1
OFFSET CHANGED FROM 1 TO 1
OFFSET CHANGED FROM 1 TO 1
OFFSET CHANGED FROM 1 TO 1
OFFSET CHANGED FROM 1 TO 2
OFFSET CHANGED FROM 2 TO 1
Heartbeat CPU 0 instructions: 30000001 cycles: 11291404 heartbeat IPC: 2.33449 cumulative IPC: 2.65689 (Simulation time: 0 hr 1 min 24 sec) 
OFFSET CHANGED FROM 1 TO 32
OFFSET CHANGED FROM 32 TO 32
OFFSET CHANGED FROM 32 TO 32
OFFSET CHANGED FROM 32 TO 32
OFFSET CHANGED FROM 32 TO 32
OFFSET CHANGED FROM 32 TO 32
OFFSET CHANGED FROM 32 TO 32
OFFSET CHANGED FROM 32 TO 32
OFFSET CHANGED FROM 32 TO 32
OFFSET CHANGED FROM 32 TO 32
OFFSET CHANGED FROM 32 TO 32
OFFSET CHANGED FROM 32 TO 32
OFFSET CHANGED FROM 32 TO 32
OFFSET CHANGED FROM 32 TO 32
OFFSET CHANGED FROM 32 TO 32
OFFSET CHANGED FROM 32 TO 32
OFFSET CHANGED FROM 32 TO 32
OFFSET CHANGED FROM 32 TO 32
OFFSET CHANGED FROM 32 TO 32
OFFSET CHANGED FROM 32 TO 32
OFFSET CHANGED FROM 32 TO 32
OFFSET CHANGED FROM 32 TO 32
OFFSET CHANGED FROM 32 TO 32
OFFSET CHANGED FROM 32 TO 32
OFFSET CHANGED FROM 32 TO 32
OFFSET CHANGED FROM 32 TO 32
OFFSET CHANGED FROM 32 TO 32
OFFSET CHANGED FROM 32 TO 32
Heartbeat CPU 0 instructions: 40000001 cycles: 15338730 heartbeat IPC: 2.47077 cumulative IPC: 2.60778 (Simulation time: 0 hr 1 min 52 sec) 
OFFSET CHANGED FROM 32 TO 32
OFFSET CHANGED FROM 32 TO 32
OFFSET CHANGED FROM 32 TO 32
OFFSET CHANGED FROM 32 TO 32
OFFSET CHANGED FROM 32 TO 32
OFFSET CHANGED FROM 32 TO 32
OFFSET CHANGED FROM 32 TO 32
OFFSET CHANGED FROM 32 TO 32
OFFSET CHANGED FROM 32 TO 32
OFFSET CHANGED FROM 32 TO 32
OFFSET CHANGED FROM 32 TO 32
OFFSET CHANGED FROM 32 TO 32
OFFSET CHANGED FROM 32 TO 32
OFFSET CHANGED FROM 32 TO 32
OFFSET CHANGED FROM 32 TO 32
OFFSET CHANGED FROM 32 TO 32
OFFSET CHANGED FROM 32 TO 32
OFFSET CHANGED FROM 32 TO 32
OFFSET CHANGED FROM 32 TO 32
OFFSET CHANGED FROM 32 TO 32
OFFSET CHANGED FROM 32 TO 32
OFFSET CHANGED FROM 32 TO 32
OFFSET CHANGED FROM 32 TO 32
OFFSET CHANGED FROM 32 TO 32
OFFSET CHANGED FROM 32 TO 32
OFFSET CHANGED FROM 32 TO 32
OFFSET CHANGED FROM 32 TO 32
OFFSET CHANGED FROM 32 TO 32
OFFSET CHANGED FROM 32 TO 32
OFFSET CHANGED FROM 32 TO 32
Heartbeat CPU 0 instructions: 50000002 cycles: 19386093 heartbeat IPC: 2.47074 cumulative IPC: 2.57917 (Simulation time: 0 hr 2 min 22 sec) 

Warmup complete CPU 0 instructions: 50000002 cycles: 19386093 (Simulation time: 0 hr 2 min 22 sec) 

OFFSET CHANGED FROM 32 TO 32
OFFSET CHANGED FROM 32 TO 32
OFFSET CHANGED FROM 32 TO 32
OFFSET CHANGED FROM 32 TO 32
OFFSET CHANGED FROM 32 TO 32
OFFSET CHANGED FROM 32 TO 32
OFFSET CHANGED FROM 32 TO 32
OFFSET CHANGED FROM 32 TO 32
OFFSET CHANGED FROM 32 TO 32
OFFSET CHANGED FROM 32 TO 32
OFFSET CHANGED FROM 32 TO 32
OFFSET CHANGED FROM 32 TO 32
OFFSET CHANGED FROM 32 TO 32
OFFSET CHANGED FROM 32 TO 32
OFFSET CHANGED FROM 32 TO 32
OFFSET CHANGED FROM 32 TO 32
OFFSET CHANGED FROM 32 TO 32
OFFSET CHANGED FROM 32 TO 32
OFFSET CHANGED FROM 32 TO 32
OFFSET CHANGED FROM 32 TO 32
OFFSET CHANGED FROM 32 TO 32
OFFSET CHANGED FROM 32 TO 32
OFFSET CHANGED FROM 32 TO 32
OFFSET CHANGED FROM 32 TO 32
OFFSET CHANGED FROM 32 TO 32
OFFSET CHANGED FROM 32 TO 32
OFFSET CHANGED FROM 32 TO 32
OFFSET CHANGED FROM 32 TO 32
Heartbeat CPU 0 instructions: 60000001 cycles: 32992372 heartbeat IPC: 0.734955 cumulative IPC: 0.734955 (Simulation time: 0 hr 2 min 49 sec) 
OFFSET CHANGED FROM 32 TO 32
OFFSET CHANGED FROM 32 TO 32
OFFSET CHANGED FROM 32 TO 32
OFFSET CHANGED FROM 32 TO 32
OFFSET CHANGED FROM 32 TO 32
OFFSET CHANGED FROM 32 TO 32
OFFSET CHANGED FROM 32 TO 32
OFFSET CHANGED FROM 32 TO 32
OFFSET CHANGED FROM 32 TO 32
OFFSET CHANGED FROM 32 TO 32
OFFSET CHANGED FROM 32 TO 32
OFFSET CHANGED FROM 32 TO 32
OFFSET CHANGED FROM 32 TO 32
OFFSET CHANGED FROM 32 TO 32
OFFSET CHANGED FROM 32 TO 32
OFFSET CHANGED FROM 32 TO 32
OFFSET CHANGED FROM 32 TO 32
OFFSET CHANGED FROM 32 TO 32
OFFSET CHANGED FROM 32 TO 32
OFFSET CHANGED FROM 32 TO 32
OFFSET CHANGED FROM 32 TO 32
OFFSET CHANGED FROM 32 TO 32
OFFSET CHANGED FROM 32 TO 32
OFFSET CHANGED FROM 32 TO 32
OFFSET CHANGED FROM 32 TO 32
OFFSET CHANGED FROM 32 TO 32
OFFSET CHANGED FROM 32 TO 32
OFFSET CHANGED FROM 32 TO 32
OFFSET CHANGED FROM 32 TO 32
Heartbeat CPU 0 instructions: 70000000 cycles: 46521998 heartbeat IPC: 0.739119 cumulative IPC: 0.737031 (Simulation time: 0 hr 3 min 14 sec) 
OFFSET CHANGED FROM 32 TO 32
OFFSET CHANGED FROM 32 TO 32
OFFSET CHANGED FROM 32 TO 32
OFFSET CHANGED FROM 32 TO 32
OFFSET CHANGED FROM 32 TO 32
OFFSET CHANGED FROM 32 TO 32
OFFSET CHANGED FROM 32 TO 32
OFFSET CHANGED FROM 32 TO 32
OFFSET CHANGED FROM 32 TO 32
OFFSET CHANGED FROM 32 TO 32
OFFSET CHANGED FROM 32 TO 32
OFFSET CHANGED FROM 32 TO 32
OFFSET CHANGED FROM 32 TO 32
OFFSET CHANGED FROM 32 TO 32
OFFSET CHANGED FROM 32 TO 32
OFFSET CHANGED FROM 32 TO 32
OFFSET CHANGED FROM 32 TO 32
OFFSET CHANGED FROM 32 TO 32
OFFSET CHANGED FROM 32 TO 32
OFFSET CHANGED FROM 32 TO 32
OFFSET CHANGED FROM 32 TO 32
OFFSET CHANGED FROM 32 TO 32
OFFSET CHANGED FROM 32 TO 32
OFFSET CHANGED FROM 32 TO 32
OFFSET CHANGED FROM 32 TO 32
OFFSET CHANGED FROM 32 TO 32
OFFSET CHANGED FROM 32 TO 32
OFFSET CHANGED FROM 32 TO 32
OFFSET CHANGED FROM 32 TO 32
OFFSET CHANGED FROM 32 TO 32
Heartbeat CPU 0 instructions: 80000001 cycles: 60050888 heartbeat IPC: 0.739159 cumulative IPC: 0.737739 (Simulation time: 0 hr 3 min 41 sec) 
OFFSET CHANGED FROM 32 TO 32
OFFSET CHANGED FROM 32 TO 32
OFFSET CHANGED FROM 32 TO 32
OFFSET CHANGED FROM 32 TO 32
OFFSET CHANGED FROM 32 TO 32
OFFSET CHANGED FROM 32 TO 32
OFFSET CHANGED FROM 32 TO 32
OFFSET CHANGED FROM 32 TO 32
OFFSET CHANGED FROM 32 TO 32
OFFSET CHANGED FROM 32 TO 32
OFFSET CHANGED FROM 32 TO 32
OFFSET CHANGED FROM 32 TO 32
OFFSET CHANGED FROM 32 TO 32
OFFSET CHANGED FROM 32 TO 32
OFFSET CHANGED FROM 32 TO 32
OFFSET CHANGED FROM 32 TO 32
OFFSET CHANGED FROM 32 TO 32
OFFSET CHANGED FROM 32 TO 32
OFFSET CHANGED FROM 32 TO 32
OFFSET CHANGED FROM 32 TO 32
OFFSET CHANGED FROM 32 TO 32
OFFSET CHANGED FROM 32 TO 32
OFFSET CHANGED FROM 32 TO 32
OFFSET CHANGED FROM 32 TO 32
OFFSET CHANGED FROM 32 TO 32
OFFSET CHANGED FROM 32 TO 32
OFFSET CHANGED FROM 32 TO 32
OFFSET CHANGED FROM 32 TO 32
Heartbeat CPU 0 instructions: 90000000 cycles: 73573481 heartbeat IPC: 0.739503 cumulative IPC: 0.738179 (Simulation time: 0 hr 4 min 6 sec) 
OFFSET CHANGED FROM 32 TO 32
OFFSET CHANGED FROM 32 TO 32
OFFSET CHANGED FROM 32 TO 32
OFFSET CHANGED FROM 32 TO 32
OFFSET CHANGED FROM 32 TO 32
OFFSET CHANGED FROM 32 TO 32
OFFSET CHANGED FROM 32 TO 32
OFFSET CHANGED FROM 32 TO 32
OFFSET CHANGED FROM 32 TO 32
OFFSET CHANGED FROM 32 TO 32
OFFSET CHANGED FROM 32 TO 32
OFFSET CHANGED FROM 32 TO 18
OFFSET CHANGED FROM 18 TO 15
OFFSET CHANGED FROM 15 TO 13
OFFSET CHANGED FROM 13 TO 13
OFFSET CHANGED FROM 13 TO 11
OFFSET CHANGED FROM 11 TO 11
OFFSET CHANGED FROM 11 TO 10
OFFSET CHANGED FROM 10 TO 12
OFFSET CHANGED FROM 12 TO 10
OFFSET CHANGED FROM 10 TO 5
OFFSET CHANGED FROM 5 TO 2
OFFSET CHANGED FROM 2 TO 2
OFFSET CHANGED FROM 2 TO 2
OFFSET CHANGED FROM 2 TO 2
OFFSET CHANGED FROM 2 TO 3
OFFSET CHANGED FROM 3 TO 5
OFFSET CHANGED FROM 5 TO 6
OFFSET CHANGED FROM 6 TO 7
OFFSET CHANGED FROM 7 TO 9
OFFSET CHANGED FROM 9 TO 10
OFFSET CHANGED FROM 10 TO 11
OFFSET CHANGED FROM 11 TO 11
OFFSET CHANGED FROM 11 TO 12
OFFSET CHANGED FROM 12 TO 13
OFFSET CHANGED FROM 13 TO 10
OFFSET CHANGED FROM 10 TO 11
OFFSET CHANGED FROM 11 TO 10
OFFSET CHANGED FROM 10 TO 10
OFFSET CHANGED FROM 10 TO 9
OFFSET CHANGED FROM 9 TO 10
OFFSET CHANGED FROM 10 TO 10
OFFSET CHANGED FROM 10 TO 11
OFFSET CHANGED FROM 11 TO 2
OFFSET CHANGED FROM 2 TO 3
OFFSET CHANGED FROM 3 TO 2
OFFSET CHANGED FROM 2 TO 2
OFFSET CHANGED FROM 2 TO 2
OFFSET CHANGED FROM 2 TO 2
OFFSET CHANGED FROM 2 TO 2
OFFSET CHANGED FROM 2 TO 2
OFFSET CHANGED FROM 2 TO 2
OFFSET CHANGED FROM 2 TO 2
OFFSET CHANGED FROM 2 TO 2
OFFSET CHANGED FROM 2 TO 2
OFFSET CHANGED FROM 2 TO 2
OFFSET CHANGED FROM 2 TO 3
OFFSET CHANGED FROM 3 TO 4
OFFSET CHANGED FROM 4 TO 3
OFFSET CHANGED FROM 3 TO 3
OFFSET CHANGED FROM 3 TO 4
OFFSET CHANGED FROM 4 TO 5
OFFSET CHANGED FROM 5 TO 6
OFFSET CHANGED FROM 6 TO 7
OFFSET CHANGED FROM 7 TO 7
OFFSET CHANGED FROM 7 TO 8
OFFSET CHANGED FROM 8 TO 9
OFFSET CHANGED FROM 9 TO 10
OFFSET CHANGED FROM 10 TO 10
OFFSET CHANGED FROM 10 TO 11
OFFSET CHANGED FROM 11 TO 12
OFFSET CHANGED FROM 12 TO 12
OFFSET CHANGED FROM 12 TO 13
OFFSET CHANGED FROM 13 TO 14
OFFSET CHANGED FROM 14 TO 14
OFFSET CHANGED FROM 14 TO 11
OFFSET CHANGED FROM 11 TO 11
OFFSET CHANGED FROM 11 TO 12
OFFSET CHANGED FROM 12 TO 12
OFFSET CHANGED FROM 12 TO 13
OFFSET CHANGED FROM 13 TO 13
OFFSET CHANGED FROM 13 TO 7
OFFSET CHANGED FROM 7 TO 6
OFFSET CHANGED FROM 6 TO 6
OFFSET CHANGED FROM 6 TO 7
OFFSET CHANGED FROM 7 TO 7
OFFSET CHANGED FROM 7 TO 8
OFFSET CHANGED FROM 8 TO 9
OFFSET CHANGED FROM 9 TO 7
OFFSET CHANGED FROM 7 TO 6
OFFSET CHANGED FROM 6 TO 3
OFFSET CHANGED FROM 3 TO 2
OFFSET CHANGED FROM 2 TO 4
OFFSET CHANGED FROM 4 TO 4
OFFSET CHANGED FROM 4 TO 4
OFFSET CHANGED FROM 4 TO 5
OFFSET CHANGED FROM 5 TO 3
OFFSET CHANGED FROM 3 TO 3
OFFSET CHANGED FROM 3 TO 3
OFFSET CHANGED FROM 3 TO 3
OFFSET CHANGED FROM 3 TO 3
OFFSET CHANGED FROM 3 TO 4
OFFSET CHANGED FROM 4 TO 4
OFFSET CHANGED FROM 4 TO 5
OFFSET CHANGED FROM 5 TO 6
OFFSET CHANGED FROM 6 TO 6
OFFSET CHANGED FROM 6 TO 7
OFFSET CHANGED FROM 7 TO 8
OFFSET CHANGED FROM 8 TO 10
OFFSET CHANGED FROM 10 TO 11
OFFSET CHANGED FROM 11 TO 12
OFFSET CHANGED FROM 12 TO 12
OFFSET CHANGED FROM 12 TO 13
OFFSET CHANGED FROM 13 TO 11
OFFSET CHANGED FROM 11 TO 10
OFFSET CHANGED FROM 10 TO 9
OFFSET CHANGED FROM 9 TO 9
OFFSET CHANGED FROM 9 TO 10
OFFSET CHANGED FROM 10 TO 10
OFFSET CHANGED FROM 10 TO 5
OFFSET CHANGED FROM 5 TO 4
OFFSET CHANGED FROM 4 TO 5
OFFSET CHANGED FROM 5 TO 5
OFFSET CHANGED FROM 5 TO 6
OFFSET CHANGED FROM 6 TO 7
OFFSET CHANGED FROM 7 TO 8
OFFSET CHANGED FROM 8 TO 9
OFFSET CHANGED FROM 9 TO 9
OFFSET CHANGED FROM 9 TO 10
OFFSET CHANGED FROM 10 TO 11
OFFSET CHANGED FROM 11 TO 10
OFFSET CHANGED FROM 10 TO 10
OFFSET CHANGED FROM 10 TO 11
OFFSET CHANGED FROM 11 TO 12
OFFSET CHANGED FROM 12 TO 12
Heartbeat CPU 0 instructions: 100000003 cycles: 90537909 heartbeat IPC: 0.589469 cumulative IPC: 0.702723 (Simulation time: 0 hr 4 min 36 sec) 
OFFSET CHANGED FROM 12 TO 13
OFFSET CHANGED FROM 13 TO 10
OFFSET CHANGED FROM 10 TO 10
OFFSET CHANGED FROM 10 TO 10
OFFSET CHANGED FROM 10 TO 11
OFFSET CHANGED FROM 11 TO 11
OFFSET CHANGED FROM 11 TO 12
OFFSET CHANGED FROM 12 TO 4
OFFSET CHANGED FROM 4 TO 4
OFFSET CHANGED FROM 4 TO 6
OFFSET CHANGED FROM 6 TO 7
OFFSET CHANGED FROM 7 TO 8
OFFSET CHANGED FROM 8 TO 9
OFFSET CHANGED FROM 9 TO 9
OFFSET CHANGED FROM 9 TO 10
OFFSET CHANGED FROM 10 TO 11
OFFSET CHANGED FROM 11 TO 2
OFFSET CHANGED FROM 2 TO 2
OFFSET CHANGED FROM 2 TO 3
OFFSET CHANGED FROM 3 TO 4
OFFSET CHANGED FROM 4 TO 5
OFFSET CHANGED FROM 5 TO 7
OFFSET CHANGED FROM 7 TO 8
OFFSET CHANGED FROM 8 TO 4
OFFSET CHANGED FROM 4 TO 5
OFFSET CHANGED FROM 5 TO 5
OFFSET CHANGED FROM 5 TO 5
OFFSET CHANGED FROM 5 TO 5
OFFSET CHANGED FROM 5 TO 2
OFFSET CHANGED FROM 2 TO 32
OFFSET CHANGED FROM 32 TO 32
OFFSET CHANGED FROM 32 TO 32
OFFSET CHANGED FROM 32 TO 32
OFFSET CHANGED FROM 32 TO 32
OFFSET CHANGED FROM 32 TO 32
OFFSET CHANGED FROM 32 TO 32
OFFSET CHANGED FROM 32 TO 32
OFFSET CHANGED FROM 32 TO 32
OFFSET CHANGED FROM 32 TO 32
OFFSET CHANGED FROM 32 TO 32
OFFSET CHANGED FROM 32 TO 32
OFFSET CHANGED FROM 32 TO 32
OFFSET CHANGED FROM 32 TO 32
OFFSET CHANGED FROM 32 TO 32
OFFSET CHANGED FROM 32 TO 32
OFFSET CHANGED FROM 32 TO 32
OFFSET CHANGED FROM 32 TO 32
OFFSET CHANGED FROM 32 TO 32
OFFSET CHANGED FROM 32 TO 32
OFFSET CHANGED FROM 32 TO 32
OFFSET CHANGED FROM 32 TO 32
OFFSET CHANGED FROM 32 TO 32
OFFSET CHANGED FROM 32 TO 32
OFFSET CHANGED FROM 32 TO 32
OFFSET CHANGED FROM 32 TO 32
OFFSET CHANGED FROM 32 TO 32
OFFSET CHANGED FROM 32 TO 32
OFFSET CHANGED FROM 32 TO 32
OFFSET CHANGED FROM 32 TO 32
OFFSET CHANGED FROM 32 TO 32
OFFSET CHANGED FROM 32 TO 32
OFFSET CHANGED FROM 32 TO 32
OFFSET CHANGED FROM 32 TO 32
OFFSET CHANGED FROM 32 TO 32
OFFSET CHANGED FROM 32 TO 32
OFFSET CHANGED FROM 32 TO 32
OFFSET CHANGED FROM 32 TO 32
OFFSET CHANGED FROM 32 TO 32
OFFSET CHANGED FROM 32 TO 32
OFFSET CHANGED FROM 32 TO 32
OFFSET CHANGED FROM 32 TO 32
OFFSET CHANGED FROM 32 TO 32
OFFSET CHANGED FROM 32 TO 32
OFFSET CHANGED FROM 32 TO 32
OFFSET CHANGED FROM 32 TO 32
OFFSET CHANGED FROM 32 TO 32
OFFSET CHANGED FROM 32 TO 32
OFFSET CHANGED FROM 32 TO 32
OFFSET CHANGED FROM 32 TO 32
OFFSET CHANGED FROM 32 TO 32
OFFSET CHANGED FROM 32 TO 32
OFFSET CHANGED FROM 32 TO 32
OFFSET CHANGED FROM 32 TO 32
OFFSET CHANGED FROM 32 TO 32
OFFSET CHANGED FROM 32 TO 32
OFFSET CHANGED FROM 32 TO 32
OFFSET CHANGED FROM 32 TO 32
OFFSET CHANGED FROM 32 TO 32
OFFSET CHANGED FROM 32 TO 32
OFFSET CHANGED FROM 32 TO 32
OFFSET CHANGED FROM 32 TO 32
OFFSET CHANGED FROM 32 TO 32
OFFSET CHANGED FROM 32 TO 32
Heartbeat CPU 0 instructions: 110000000 cycles: 109479163 heartbeat IPC: 0.527948 cumulative IPC: 0.665978 (Simulation time: 0 hr 5 min 12 sec) 
OFFSET CHANGED FROM 32 TO 32
OFFSET CHANGED FROM 32 TO 32
OFFSET CHANGED FROM 32 TO 32
OFFSET CHANGED FROM 32 TO 32
OFFSET CHANGED FROM 32 TO 32
OFFSET CHANGED FROM 32 TO 32
OFFSET CHANGED FROM 32 TO 32
OFFSET CHANGED FROM 32 TO 32
OFFSET CHANGED FROM 32 TO 32
OFFSET CHANGED FROM 32 TO 32
OFFSET CHANGED FROM 32 TO 32
OFFSET CHANGED FROM 32 TO 32
OFFSET CHANGED FROM 32 TO 32
OFFSET CHANGED FROM 32 TO 32
OFFSET CHANGED FROM 32 TO 32
OFFSET CHANGED FROM 32 TO 32
OFFSET CHANGED FROM 32 TO 32
OFFSET CHANGED FROM 32 TO 32
OFFSET CHANGED FROM 32 TO 32
OFFSET CHANGED FROM 32 TO 32
OFFSET CHANGED FROM 32 TO 32
OFFSET CHANGED FROM 32 TO 32
OFFSET CHANGED FROM 32 TO 32
OFFSET CHANGED FROM 32 TO 32
OFFSET CHANGED FROM 32 TO 32
OFFSET CHANGED FROM 32 TO 32
OFFSET CHANGED FROM 32 TO 32
OFFSET CHANGED FROM 32 TO 32
OFFSET CHANGED FROM 32 TO 32
OFFSET CHANGED FROM 32 TO 32
OFFSET CHANGED FROM 32 TO 32
OFFSET CHANGED FROM 32 TO 32
OFFSET CHANGED FROM 32 TO 32
OFFSET CHANGED FROM 32 TO 32
OFFSET CHANGED FROM 32 TO 32
OFFSET CHANGED FROM 32 TO 32
OFFSET CHANGED FROM 32 TO 32
OFFSET CHANGED FROM 32 TO 32
OFFSET CHANGED FROM 32 TO 32
OFFSET CHANGED FROM 32 TO 32
OFFSET CHANGED FROM 32 TO 32
OFFSET CHANGED FROM 32 TO 32
OFFSET CHANGED FROM 32 TO 32
OFFSET CHANGED FROM 32 TO 32
OFFSET CHANGED FROM 32 TO 32
OFFSET CHANGED FROM 32 TO 32
OFFSET CHANGED FROM 32 TO 32
OFFSET CHANGED FROM 32 TO 32
OFFSET CHANGED FROM 32 TO 32
OFFSET CHANGED FROM 32 TO 32
OFFSET CHANGED FROM 32 TO 32
OFFSET CHANGED FROM 32 TO 32
OFFSET CHANGED FROM 32 TO 32
OFFSET CHANGED FROM 32 TO 32
OFFSET CHANGED FROM 32 TO 32
OFFSET CHANGED FROM 32 TO 32
OFFSET CHANGED FROM 32 TO 32
OFFSET CHANGED FROM 32 TO 32
OFFSET CHANGED FROM 32 TO 32
OFFSET CHANGED FROM 32 TO 32
OFFSET CHANGED FROM 32 TO 32
OFFSET CHANGED FROM 32 TO 32
OFFSET CHANGED FROM 32 TO 32
OFFSET CHANGED FROM 32 TO 32
OFFSET CHANGED FROM 32 TO 32
OFFSET CHANGED FROM 32 TO 32
OFFSET CHANGED FROM 32 TO 32
OFFSET CHANGED FROM 32 TO 32
OFFSET CHANGED FROM 32 TO 32
OFFSET CHANGED FROM 32 TO 32
OFFSET CHANGED FROM 32 TO 32
OFFSET CHANGED FROM 32 TO 32
OFFSET CHANGED FROM 32 TO 32
OFFSET CHANGED FROM 32 TO 32
OFFSET CHANGED FROM 32 TO 32
OFFSET CHANGED FROM 32 TO 32
OFFSET CHANGED FROM 32 TO 32
OFFSET CHANGED FROM 32 TO 32
OFFSET CHANGED FROM 32 TO 32
OFFSET CHANGED FROM 32 TO 32
OFFSET CHANGED FROM 32 TO 32
OFFSET CHANGED FROM 32 TO 32
OFFSET CHANGED FROM 32 TO 32
OFFSET CHANGED FROM 32 TO 32
OFFSET CHANGED FROM 32 TO 32
OFFSET CHANGED FROM 32 TO 32
OFFSET CHANGED FROM 32 TO 32
OFFSET CHANGED FROM 32 TO 32
Heartbeat CPU 0 instructions: 120000000 cycles: 130499589 heartbeat IPC: 0.475728 cumulative IPC: 0.629986 (Simulation time: 0 hr 5 min 47 sec) 
OFFSET CHANGED FROM 32 TO 32
OFFSET CHANGED FROM 32 TO 32
OFFSET CHANGED FROM 32 TO 32
OFFSET CHANGED FROM 32 TO 32
OFFSET CHANGED FROM 32 TO 32
OFFSET CHANGED FROM 32 TO 32
OFFSET CHANGED FROM 32 TO 32
OFFSET CHANGED FROM 32 TO 32
OFFSET CHANGED FROM 32 TO 32
OFFSET CHANGED FROM 32 TO 32
OFFSET CHANGED FROM 32 TO 32
OFFSET CHANGED FROM 32 TO 32
OFFSET CHANGED FROM 32 TO 32
OFFSET CHANGED FROM 32 TO 32
OFFSET CHANGED FROM 32 TO 32
OFFSET CHANGED FROM 32 TO 32
OFFSET CHANGED FROM 32 TO 32
OFFSET CHANGED FROM 32 TO 32
OFFSET CHANGED FROM 32 TO 32
OFFSET CHANGED FROM 32 TO 32
OFFSET CHANGED FROM 32 TO 32
OFFSET CHANGED FROM 32 TO 32
OFFSET CHANGED FROM 32 TO 32
OFFSET CHANGED FROM 32 TO 32
OFFSET CHANGED FROM 32 TO 32
OFFSET CHANGED FROM 32 TO 32
OFFSET CHANGED FROM 32 TO 32
OFFSET CHANGED FROM 32 TO 32
OFFSET CHANGED FROM 32 TO 32
OFFSET CHANGED FROM 32 TO 32
OFFSET CHANGED FROM 32 TO 32
OFFSET CHANGED FROM 32 TO 32
OFFSET CHANGED FROM 32 TO 32
OFFSET CHANGED FROM 32 TO 32
OFFSET CHANGED FROM 32 TO 32
OFFSET CHANGED FROM 32 TO 32
OFFSET CHANGED FROM 32 TO 32
OFFSET CHANGED FROM 32 TO 32
OFFSET CHANGED FROM 32 TO 32
OFFSET CHANGED FROM 32 TO 32
OFFSET CHANGED FROM 32 TO 32
OFFSET CHANGED FROM 32 TO 32
OFFSET CHANGED FROM 32 TO 32
OFFSET CHANGED FROM 32 TO 32
OFFSET CHANGED FROM 32 TO 32
OFFSET CHANGED FROM 32 TO 32
OFFSET CHANGED FROM 32 TO 32
OFFSET CHANGED FROM 32 TO 32
OFFSET CHANGED FROM 32 TO 32
OFFSET CHANGED FROM 32 TO 32
OFFSET CHANGED FROM 32 TO 32
OFFSET CHANGED FROM 32 TO 32
OFFSET CHANGED FROM 32 TO 32
OFFSET CHANGED FROM 32 TO 32
OFFSET CHANGED FROM 32 TO 32
OFFSET CHANGED FROM 32 TO 32
OFFSET CHANGED FROM 32 TO 32
OFFSET CHANGED FROM 32 TO 32
OFFSET CHANGED FROM 32 TO 32
OFFSET CHANGED FROM 32 TO 32
OFFSET CHANGED FROM 32 TO 32
OFFSET CHANGED FROM 32 TO 32
OFFSET CHANGED FROM 32 TO 32
OFFSET CHANGED FROM 32 TO 32
OFFSET CHANGED FROM 32 TO 32
OFFSET CHANGED FROM 32 TO 32
OFFSET CHANGED FROM 32 TO 32
OFFSET CHANGED FROM 32 TO 32
OFFSET CHANGED FROM 32 TO 32
OFFSET CHANGED FROM 32 TO 32
OFFSET CHANGED FROM 32 TO 32
OFFSET CHANGED FROM 32 TO 32
OFFSET CHANGED FROM 32 TO 32
OFFSET CHANGED FROM 32 TO 32
OFFSET CHANGED FROM 32 TO 32
OFFSET CHANGED FROM 32 TO 32
OFFSET CHANGED FROM 32 TO 32
OFFSET CHANGED FROM 32 TO 32
Heartbeat CPU 0 instructions: 130000001 cycles: 150610413 heartbeat IPC: 0.497245 cumulative IPC: 0.609643 (Simulation time: 0 hr 6 min 23 sec) 
OFFSET CHANGED FROM 32 TO 32
OFFSET CHANGED FROM 32 TO 32
OFFSET CHANGED FROM 32 TO 32
OFFSET CHANGED FROM 32 TO 32
OFFSET CHANGED FROM 32 TO 32
OFFSET CHANGED FROM 32 TO 32
OFFSET CHANGED FROM 32 TO 32
OFFSET CHANGED FROM 32 TO 32
OFFSET CHANGED FROM 32 TO 32
OFFSET CHANGED FROM 32 TO 32
OFFSET CHANGED FROM 32 TO 32
OFFSET CHANGED FROM 32 TO 32
OFFSET CHANGED FROM 32 TO 32
OFFSET CHANGED FROM 32 TO 32
OFFSET CHANGED FROM 32 TO 32
OFFSET CHANGED FROM 32 TO 32
OFFSET CHANGED FROM 32 TO 32
OFFSET CHANGED FROM 32 TO 32
OFFSET CHANGED FROM 32 TO 32
OFFSET CHANGED FROM 32 TO 32
OFFSET CHANGED FROM 32 TO 32
OFFSET CHANGED FROM 32 TO 32
OFFSET CHANGED FROM 32 TO 32
OFFSET CHANGED FROM 32 TO 32
OFFSET CHANGED FROM 32 TO 32
OFFSET CHANGED FROM 32 TO 32
OFFSET CHANGED FROM 32 TO 32
OFFSET CHANGED FROM 32 TO 32
OFFSET CHANGED FROM 32 TO 32
OFFSET CHANGED FROM 32 TO 32
OFFSET CHANGED FROM 32 TO 32
OFFSET CHANGED FROM 32 TO 32
OFFSET CHANGED FROM 32 TO 32
OFFSET CHANGED FROM 32 TO 32
OFFSET CHANGED FROM 32 TO 32
OFFSET CHANGED FROM 32 TO 32
OFFSET CHANGED FROM 32 TO 32
OFFSET CHANGED FROM 32 TO 32
OFFSET CHANGED FROM 32 TO 32
OFFSET CHANGED FROM 32 TO 32
OFFSET CHANGED FROM 32 TO 32
OFFSET CHANGED FROM 32 TO 32
OFFSET CHANGED FROM 32 TO 32
OFFSET CHANGED FROM 32 TO 32
OFFSET CHANGED FROM 32 TO 32
OFFSET CHANGED FROM 32 TO 32
OFFSET CHANGED FROM 32 TO 32
OFFSET CHANGED FROM 32 TO 32
OFFSET CHANGED FROM 32 TO 32
OFFSET CHANGED FROM 32 TO 32
OFFSET CHANGED FROM 32 TO 32
OFFSET CHANGED FROM 32 TO 32
OFFSET CHANGED FROM 32 TO 32
OFFSET CHANGED FROM 32 TO 32
OFFSET CHANGED FROM 32 TO 32
OFFSET CHANGED FROM 32 TO 32
OFFSET CHANGED FROM 32 TO 32
OFFSET CHANGED FROM 32 TO 32
OFFSET CHANGED FROM 32 TO 32
OFFSET CHANGED FROM 32 TO 32
OFFSET CHANGED FROM 32 TO 32
OFFSET CHANGED FROM 32 TO 32
OFFSET CHANGED FROM 32 TO 32
OFFSET CHANGED FROM 32 TO 32
OFFSET CHANGED FROM 32 TO 32
OFFSET CHANGED FROM 32 TO 32
OFFSET CHANGED FROM 32 TO 32
OFFSET CHANGED FROM 32 TO 32
OFFSET CHANGED FROM 32 TO 32
OFFSET CHANGED FROM 32 TO 32
OFFSET CHANGED FROM 32 TO 32
OFFSET CHANGED FROM 32 TO 32
OFFSET CHANGED FROM 32 TO 32
OFFSET CHANGED FROM 32 TO 32
OFFSET CHANGED FROM 32 TO 32
OFFSET CHANGED FROM 32 TO 32
OFFSET CHANGED FROM 32 TO 32
OFFSET CHANGED FROM 32 TO 32
OFFSET CHANGED FROM 32 TO 32
OFFSET CHANGED FROM 32 TO 32
OFFSET CHANGED FROM 32 TO 32
OFFSET CHANGED FROM 32 TO 32
OFFSET CHANGED FROM 32 TO 32
OFFSET CHANGED FROM 32 TO 32
OFFSET CHANGED FROM 32 TO 32
OFFSET CHANGED FROM 32 TO 32
OFFSET CHANGED FROM 32 TO 32
OFFSET CHANGED FROM 32 TO 32
Heartbeat CPU 0 instructions: 140000003 cycles: 172177925 heartbeat IPC: 0.46366 cumulative IPC: 0.589037 (Simulation time: 0 hr 6 min 59 sec) 
OFFSET CHANGED FROM 32 TO 32
OFFSET CHANGED FROM 32 TO 32
OFFSET CHANGED FROM 32 TO 32
OFFSET CHANGED FROM 32 TO 32
OFFSET CHANGED FROM 32 TO 32
OFFSET CHANGED FROM 32 TO 32
OFFSET CHANGED FROM 32 TO 32
OFFSET CHANGED FROM 32 TO 32
OFFSET CHANGED FROM 32 TO 32
OFFSET CHANGED FROM 32 TO 32
OFFSET CHANGED FROM 32 TO 32
OFFSET CHANGED FROM 32 TO 32
OFFSET CHANGED FROM 32 TO 32
OFFSET CHANGED FROM 32 TO 32
OFFSET CHANGED FROM 32 TO 32
OFFSET CHANGED FROM 32 TO 32
OFFSET CHANGED FROM 32 TO 32
OFFSET CHANGED FROM 32 TO 32
OFFSET CHANGED FROM 32 TO 32
OFFSET CHANGED FROM 32 TO 32
OFFSET CHANGED FROM 32 TO 32
OFFSET CHANGED FROM 32 TO 32
OFFSET CHANGED FROM 32 TO 32
OFFSET CHANGED FROM 32 TO 32
OFFSET CHANGED FROM 32 TO 32
OFFSET CHANGED FROM 32 TO 32
OFFSET CHANGED FROM 32 TO 32
OFFSET CHANGED FROM 32 TO 32
OFFSET CHANGED FROM 32 TO 32
OFFSET CHANGED FROM 32 TO 32
OFFSET CHANGED FROM 32 TO 32
OFFSET CHANGED FROM 32 TO 32
OFFSET CHANGED FROM 32 TO 32
OFFSET CHANGED FROM 32 TO 32
OFFSET CHANGED FROM 32 TO 32
OFFSET CHANGED FROM 32 TO 32
OFFSET CHANGED FROM 32 TO 32
OFFSET CHANGED FROM 32 TO 32
OFFSET CHANGED FROM 32 TO 32
OFFSET CHANGED FROM 32 TO 32
OFFSET CHANGED FROM 32 TO 32
OFFSET CHANGED FROM 32 TO 32
OFFSET CHANGED FROM 32 TO 32
OFFSET CHANGED FROM 32 TO 32
OFFSET CHANGED FROM 32 TO 32
OFFSET CHANGED FROM 32 TO 32
OFFSET CHANGED FROM 32 TO 32
OFFSET CHANGED FROM 32 TO 32
OFFSET CHANGED FROM 32 TO 32
OFFSET CHANGED FROM 32 TO 32
OFFSET CHANGED FROM 32 TO 32
OFFSET CHANGED FROM 32 TO 32
OFFSET CHANGED FROM 32 TO 32
OFFSET CHANGED FROM 32 TO 32
OFFSET CHANGED FROM 32 TO 32
OFFSET CHANGED FROM 32 TO 32
OFFSET CHANGED FROM 32 TO 32
OFFSET CHANGED FROM 32 TO 32
OFFSET CHANGED FROM 32 TO 32
OFFSET CHANGED FROM 32 TO 32
OFFSET CHANGED FROM 32 TO 32
OFFSET CHANGED FROM 32 TO 32
OFFSET CHANGED FROM 32 TO 32
OFFSET CHANGED FROM 32 TO 32
OFFSET CHANGED FROM 32 TO 32
OFFSET CHANGED FROM 32 TO 32
OFFSET CHANGED FROM 32 TO 32
OFFSET CHANGED FROM 32 TO 32
OFFSET CHANGED FROM 32 TO 32
OFFSET CHANGED FROM 32 TO 32
OFFSET CHANGED FROM 32 TO 32
OFFSET CHANGED FROM 32 TO 32
OFFSET CHANGED FROM 32 TO 32
OFFSET CHANGED FROM 32 TO 32
OFFSET CHANGED FROM 32 TO 32
OFFSET CHANGED FROM 32 TO 32
OFFSET CHANGED FROM 32 TO 32
OFFSET CHANGED FROM 32 TO 32
OFFSET CHANGED FROM 32 TO 32
OFFSET CHANGED FROM 32 TO 32
OFFSET CHANGED FROM 32 TO 32
OFFSET CHANGED FROM 32 TO 32
OFFSET CHANGED FROM 32 TO 32
OFFSET CHANGED FROM 32 TO 32
OFFSET CHANGED FROM 32 TO 32
OFFSET CHANGED FROM 32 TO 32
OFFSET CHANGED FROM 32 TO 32
OFFSET CHANGED FROM 32 TO 32
OFFSET CHANGED FROM 32 TO 32
OFFSET CHANGED FROM 32 TO 32
Heartbeat CPU 0 instructions: 150000001 cycles: 193711535 heartbeat IPC: 0.46439 cumulative IPC: 0.57364 (Simulation time: 0 hr 7 min 36 sec) 
OFFSET CHANGED FROM 32 TO 32
OFFSET CHANGED FROM 32 TO 32
OFFSET CHANGED FROM 32 TO 32
OFFSET CHANGED FROM 32 TO 32
OFFSET CHANGED FROM 32 TO 32
OFFSET CHANGED FROM 32 TO 32
OFFSET CHANGED FROM 32 TO 32
OFFSET CHANGED FROM 32 TO 32
OFFSET CHANGED FROM 32 TO 32
OFFSET CHANGED FROM 32 TO 32
OFFSET CHANGED FROM 32 TO 32
OFFSET CHANGED FROM 32 TO 32
OFFSET CHANGED FROM 32 TO 32
OFFSET CHANGED FROM 32 TO 32
OFFSET CHANGED FROM 32 TO 32
OFFSET CHANGED FROM 32 TO 32
OFFSET CHANGED FROM 32 TO 32
OFFSET CHANGED FROM 32 TO 32
OFFSET CHANGED FROM 32 TO 32
OFFSET CHANGED FROM 32 TO 32
OFFSET CHANGED FROM 32 TO 32
OFFSET CHANGED FROM 32 TO 32
OFFSET CHANGED FROM 32 TO 32
OFFSET CHANGED FROM 32 TO 32
OFFSET CHANGED FROM 32 TO 32
OFFSET CHANGED FROM 32 TO 32
OFFSET CHANGED FROM 32 TO 32
OFFSET CHANGED FROM 32 TO 32
OFFSET CHANGED FROM 32 TO 32
OFFSET CHANGED FROM 32 TO 32
OFFSET CHANGED FROM 32 TO 32
OFFSET CHANGED FROM 32 TO 32
OFFSET CHANGED FROM 32 TO 32
OFFSET CHANGED FROM 32 TO 32
OFFSET CHANGED FROM 32 TO 32
OFFSET CHANGED FROM 32 TO 32
OFFSET CHANGED FROM 32 TO 32
OFFSET CHANGED FROM 32 TO 32
OFFSET CHANGED FROM 32 TO 32
OFFSET CHANGED FROM 32 TO 32
OFFSET CHANGED FROM 32 TO 32
OFFSET CHANGED FROM 32 TO 32
OFFSET CHANGED FROM 32 TO 32
OFFSET CHANGED FROM 32 TO 32
OFFSET CHANGED FROM 32 TO 32
OFFSET CHANGED FROM 32 TO 32
OFFSET CHANGED FROM 32 TO 32
OFFSET CHANGED FROM 32 TO 32
OFFSET CHANGED FROM 32 TO 32
OFFSET CHANGED FROM 32 TO 32
Heartbeat CPU 0 instructions: 160000000 cycles: 208564501 heartbeat IPC: 0.673266 cumulative IPC: 0.581462 (Simulation time: 0 hr 8 min 3 sec) 
OFFSET CHANGED FROM 32 TO 32
OFFSET CHANGED FROM 32 TO 32
OFFSET CHANGED FROM 32 TO 32
OFFSET CHANGED FROM 32 TO 32
OFFSET CHANGED FROM 32 TO 32
OFFSET CHANGED FROM 32 TO 32
OFFSET CHANGED FROM 32 TO 32
OFFSET CHANGED FROM 32 TO 32
OFFSET CHANGED FROM 32 TO 32
OFFSET CHANGED FROM 32 TO 32
OFFSET CHANGED FROM 32 TO 32
OFFSET CHANGED FROM 32 TO 32
OFFSET CHANGED FROM 32 TO 32
OFFSET CHANGED FROM 32 TO 32
OFFSET CHANGED FROM 32 TO 32
OFFSET CHANGED FROM 32 TO 32
OFFSET CHANGED FROM 32 TO 32
OFFSET CHANGED FROM 32 TO 32
OFFSET CHANGED FROM 32 TO 32
OFFSET CHANGED FROM 32 TO 32
OFFSET CHANGED FROM 32 TO 32
OFFSET CHANGED FROM 32 TO 32
OFFSET CHANGED FROM 32 TO 32
OFFSET CHANGED FROM 32 TO 32
OFFSET CHANGED FROM 32 TO 32
OFFSET CHANGED FROM 32 TO 32
OFFSET CHANGED FROM 32 TO 32
OFFSET CHANGED FROM 32 TO 32
OFFSET CHANGED FROM 32 TO 32
OFFSET CHANGED FROM 32 TO 32
OFFSET CHANGED FROM 32 TO 32
OFFSET CHANGED FROM 32 TO 32
OFFSET CHANGED FROM 32 TO 32
OFFSET CHANGED FROM 32 TO 32
OFFSET CHANGED FROM 32 TO 32
OFFSET CHANGED FROM 32 TO 32
OFFSET CHANGED FROM 32 TO 32
OFFSET CHANGED FROM 32 TO 32
OFFSET CHANGED FROM 32 TO 32
OFFSET CHANGED FROM 32 TO 32
Heartbeat CPU 0 instructions: 170000002 cycles: 221960566 heartbeat IPC: 0.746488 cumulative IPC: 0.592375 (Simulation time: 0 hr 8 min 29 sec) 
OFFSET CHANGED FROM 32 TO 32
OFFSET CHANGED FROM 32 TO 32
OFFSET CHANGED FROM 32 TO 32
OFFSET CHANGED FROM 32 TO 32
OFFSET CHANGED FROM 32 TO 32
OFFSET CHANGED FROM 32 TO 32
OFFSET CHANGED FROM 32 TO 32
OFFSET CHANGED FROM 32 TO 32
OFFSET CHANGED FROM 32 TO 32
OFFSET CHANGED FROM 32 TO 32
OFFSET CHANGED FROM 32 TO 32
OFFSET CHANGED FROM 32 TO 32
OFFSET CHANGED FROM 32 TO 32
OFFSET CHANGED FROM 32 TO 32
OFFSET CHANGED FROM 32 TO 32
OFFSET CHANGED FROM 32 TO 32
OFFSET CHANGED FROM 32 TO 32
OFFSET CHANGED FROM 32 TO 32
OFFSET CHANGED FROM 32 TO 32
OFFSET CHANGED FROM 32 TO 32
OFFSET CHANGED FROM 32 TO 32
OFFSET CHANGED FROM 32 TO 32
OFFSET CHANGED FROM 32 TO 32
OFFSET CHANGED FROM 32 TO 32
OFFSET CHANGED FROM 32 TO 32
OFFSET CHANGED FROM 32 TO 32
OFFSET CHANGED FROM 32 TO 32
OFFSET CHANGED FROM 32 TO 32
OFFSET CHANGED FROM 32 TO 32
OFFSET CHANGED FROM 32 TO 32
OFFSET CHANGED FROM 32 TO 32
OFFSET CHANGED FROM 32 TO 32
OFFSET CHANGED FROM 32 TO 32
OFFSET CHANGED FROM 32 TO 32
OFFSET CHANGED FROM 32 TO 32
OFFSET CHANGED FROM 32 TO 32
OFFSET CHANGED FROM 32 TO 32
OFFSET CHANGED FROM 32 TO 32
OFFSET CHANGED FROM 32 TO 32
Heartbeat CPU 0 instructions: 180000000 cycles: 235548559 heartbeat IPC: 0.735944 cumulative IPC: 0.601399 (Simulation time: 0 hr 8 min 57 sec) 
OFFSET CHANGED FROM 32 TO 32
OFFSET CHANGED FROM 32 TO 32
OFFSET CHANGED FROM 32 TO 32
OFFSET CHANGED FROM 32 TO 32
OFFSET CHANGED FROM 32 TO 32
OFFSET CHANGED FROM 32 TO 32
OFFSET CHANGED FROM 32 TO 32
OFFSET CHANGED FROM 32 TO 32
OFFSET CHANGED FROM 32 TO 32
OFFSET CHANGED FROM 32 TO 32
OFFSET CHANGED FROM 32 TO 32
OFFSET CHANGED FROM 32 TO 32
OFFSET CHANGED FROM 32 TO 32
OFFSET CHANGED FROM 32 TO 32
OFFSET CHANGED FROM 32 TO 32
OFFSET CHANGED FROM 32 TO 32
OFFSET CHANGED FROM 32 TO 32
OFFSET CHANGED FROM 32 TO 32
OFFSET CHANGED FROM 32 TO 32
OFFSET CHANGED FROM 32 TO 32
OFFSET CHANGED FROM 32 TO 32
OFFSET CHANGED FROM 32 TO 32
OFFSET CHANGED FROM 32 TO 32
OFFSET CHANGED FROM 32 TO 32
OFFSET CHANGED FROM 32 TO 32
OFFSET CHANGED FROM 32 TO 32
OFFSET CHANGED FROM 32 TO 32
OFFSET CHANGED FROM 32 TO 32
OFFSET CHANGED FROM 32 TO 32
OFFSET CHANGED FROM 32 TO 32
OFFSET CHANGED FROM 32 TO 32
OFFSET CHANGED FROM 32 TO 32
OFFSET CHANGED FROM 32 TO 32
OFFSET CHANGED FROM 32 TO 32
OFFSET CHANGED FROM 32 TO 32
OFFSET CHANGED FROM 32 TO 32
OFFSET CHANGED FROM 32 TO 32
OFFSET CHANGED FROM 32 TO 32
Heartbeat CPU 0 instructions: 190000000 cycles: 249110948 heartbeat IPC: 0.737333 cumulative IPC: 0.609425 (Simulation time: 0 hr 9 min 23 sec) 
OFFSET CHANGED FROM 32 TO 32
OFFSET CHANGED FROM 32 TO 32
OFFSET CHANGED FROM 32 TO 32
OFFSET CHANGED FROM 32 TO 32
OFFSET CHANGED FROM 32 TO 32
OFFSET CHANGED FROM 32 TO 32
OFFSET CHANGED FROM 32 TO 32
OFFSET CHANGED FROM 32 TO 32
OFFSET CHANGED FROM 32 TO 32
OFFSET CHANGED FROM 32 TO 32
OFFSET CHANGED FROM 32 TO 32
OFFSET CHANGED FROM 32 TO 32
OFFSET CHANGED FROM 32 TO 32
OFFSET CHANGED FROM 32 TO 32
OFFSET CHANGED FROM 32 TO 32
OFFSET CHANGED FROM 32 TO 32
OFFSET CHANGED FROM 32 TO 32
OFFSET CHANGED FROM 32 TO 32
OFFSET CHANGED FROM 32 TO 32
OFFSET CHANGED FROM 32 TO 32
OFFSET CHANGED FROM 32 TO 32
OFFSET CHANGED FROM 32 TO 32
OFFSET CHANGED FROM 32 TO 32
OFFSET CHANGED FROM 32 TO 32
OFFSET CHANGED FROM 32 TO 32
OFFSET CHANGED FROM 32 TO 32
OFFSET CHANGED FROM 32 TO 32
OFFSET CHANGED FROM 32 TO 32
OFFSET CHANGED FROM 32 TO 32
OFFSET CHANGED FROM 32 TO 32
OFFSET CHANGED FROM 32 TO 32
OFFSET CHANGED FROM 32 TO 32
OFFSET CHANGED FROM 32 TO 32
OFFSET CHANGED FROM 32 TO 32
OFFSET CHANGED FROM 32 TO 32
OFFSET CHANGED FROM 32 TO 32
OFFSET CHANGED FROM 32 TO 32
OFFSET CHANGED FROM 32 TO 32
OFFSET CHANGED FROM 32 TO 32
Heartbeat CPU 0 instructions: 200000002 cycles: 262639975 heartbeat IPC: 0.739152 cumulative IPC: 0.61664 (Simulation time: 0 hr 9 min 49 sec) 
OFFSET CHANGED FROM 32 TO 32
OFFSET CHANGED FROM 32 TO 32
OFFSET CHANGED FROM 32 TO 32
OFFSET CHANGED FROM 32 TO 32
OFFSET CHANGED FROM 32 TO 32
OFFSET CHANGED FROM 32 TO 32
OFFSET CHANGED FROM 32 TO 32
OFFSET CHANGED FROM 32 TO 32
OFFSET CHANGED FROM 32 TO 32
OFFSET CHANGED FROM 32 TO 32
OFFSET CHANGED FROM 32 TO 32
OFFSET CHANGED FROM 32 TO 32
OFFSET CHANGED FROM 32 TO 32
OFFSET CHANGED FROM 32 TO 32
OFFSET CHANGED FROM 32 TO 32
OFFSET CHANGED FROM 32 TO 32
OFFSET CHANGED FROM 32 TO 32
OFFSET CHANGED FROM 32 TO 32
OFFSET CHANGED FROM 32 TO 32
OFFSET CHANGED FROM 32 TO 32
OFFSET CHANGED FROM 32 TO 32
OFFSET CHANGED FROM 32 TO 32
OFFSET CHANGED FROM 32 TO 32
OFFSET CHANGED FROM 32 TO 32
OFFSET CHANGED FROM 32 TO 32
OFFSET CHANGED FROM 32 TO 32
OFFSET CHANGED FROM 32 TO 32
OFFSET CHANGED FROM 32 TO 32
OFFSET CHANGED FROM 32 TO 32
OFFSET CHANGED FROM 32 TO 32
OFFSET CHANGED FROM 32 TO 32
OFFSET CHANGED FROM 32 TO 32
OFFSET CHANGED FROM 32 TO 32
OFFSET CHANGED FROM 32 TO 32
OFFSET CHANGED FROM 32 TO 32
OFFSET CHANGED FROM 32 TO 32
OFFSET CHANGED FROM 32 TO 32
OFFSET CHANGED FROM 32 TO 32
OFFSET CHANGED FROM 32 TO 32
Heartbeat CPU 0 instructions: 210000001 cycles: 276168128 heartbeat IPC: 0.739199 cumulative IPC: 0.623097 (Simulation time: 0 hr 10 min 15 sec) 
OFFSET CHANGED FROM 32 TO 32
OFFSET CHANGED FROM 32 TO 32
OFFSET CHANGED FROM 32 TO 32
OFFSET CHANGED FROM 32 TO 32
OFFSET CHANGED FROM 32 TO 32
OFFSET CHANGED FROM 32 TO 32
OFFSET CHANGED FROM 32 TO 32
OFFSET CHANGED FROM 32 TO 32
OFFSET CHANGED FROM 32 TO 32
OFFSET CHANGED FROM 32 TO 32
OFFSET CHANGED FROM 32 TO 32
OFFSET CHANGED FROM 32 TO 32
OFFSET CHANGED FROM 32 TO 32
OFFSET CHANGED FROM 32 TO 32
OFFSET CHANGED FROM 32 TO 32
OFFSET CHANGED FROM 32 TO 32
OFFSET CHANGED FROM 32 TO 32
OFFSET CHANGED FROM 32 TO 32
OFFSET CHANGED FROM 32 TO 32
OFFSET CHANGED FROM 32 TO 32
OFFSET CHANGED FROM 32 TO 32
OFFSET CHANGED FROM 32 TO 32
OFFSET CHANGED FROM 32 TO 32
OFFSET CHANGED FROM 32 TO 32
OFFSET CHANGED FROM 32 TO 32
OFFSET CHANGED FROM 32 TO 32
OFFSET CHANGED FROM 32 TO 32
OFFSET CHANGED FROM 32 TO 32
OFFSET CHANGED FROM 32 TO 32
OFFSET CHANGED FROM 32 TO 32
OFFSET CHANGED FROM 32 TO 32
OFFSET CHANGED FROM 32 TO 32
OFFSET CHANGED FROM 32 TO 32
OFFSET CHANGED FROM 32 TO 32
OFFSET CHANGED FROM 32 TO 32
OFFSET CHANGED FROM 32 TO 32
OFFSET CHANGED FROM 32 TO 32
OFFSET CHANGED FROM 32 TO 32
Heartbeat CPU 0 instructions: 220000000 cycles: 289690571 heartbeat IPC: 0.739511 cumulative IPC: 0.62892 (Simulation time: 0 hr 10 min 40 sec) 
OFFSET CHANGED FROM 32 TO 32
OFFSET CHANGED FROM 32 TO 32
OFFSET CHANGED FROM 32 TO 32
OFFSET CHANGED FROM 32 TO 32
OFFSET CHANGED FROM 32 TO 32
OFFSET CHANGED FROM 32 TO 32
OFFSET CHANGED FROM 32 TO 32
OFFSET CHANGED FROM 32 TO 32
OFFSET CHANGED FROM 32 TO 32
OFFSET CHANGED FROM 32 TO 32
OFFSET CHANGED FROM 32 TO 32
OFFSET CHANGED FROM 32 TO 32
OFFSET CHANGED FROM 32 TO 32
OFFSET CHANGED FROM 32 TO 32
OFFSET CHANGED FROM 32 TO 32
OFFSET CHANGED FROM 32 TO 32
OFFSET CHANGED FROM 32 TO 32
OFFSET CHANGED FROM 32 TO 32
OFFSET CHANGED FROM 32 TO 32
OFFSET CHANGED FROM 32 TO 32
OFFSET CHANGED FROM 32 TO 32
OFFSET CHANGED FROM 32 TO 32
OFFSET CHANGED FROM 32 TO 32
OFFSET CHANGED FROM 32 TO 32
OFFSET CHANGED FROM 32 TO 32
OFFSET CHANGED FROM 32 TO 32
OFFSET CHANGED FROM 32 TO 32
OFFSET CHANGED FROM 32 TO 32
OFFSET CHANGED FROM 32 TO 32
OFFSET CHANGED FROM 32 TO 32
OFFSET CHANGED FROM 32 TO 32
OFFSET CHANGED FROM 32 TO 32
OFFSET CHANGED FROM 32 TO 32
OFFSET CHANGED FROM 32 TO 32
OFFSET CHANGED FROM 32 TO 32
OFFSET CHANGED FROM 32 TO 32
OFFSET CHANGED FROM 32 TO 32
OFFSET CHANGED FROM 32 TO 32
OFFSET CHANGED FROM 32 TO 32
OFFSET CHANGED FROM 32 TO 32
OFFSET CHANGED FROM 32 TO 32
OFFSET CHANGED FROM 32 TO 32
OFFSET CHANGED FROM 32 TO 32
OFFSET CHANGED FROM 32 TO 32
OFFSET CHANGED FROM 32 TO 32
OFFSET CHANGED FROM 32 TO 32
OFFSET CHANGED FROM 32 TO 32
OFFSET CHANGED FROM 32 TO 32
OFFSET CHANGED FROM 32 TO 32
OFFSET CHANGED FROM 32 TO 32
OFFSET CHANGED FROM 32 TO 32
OFFSET CHANGED FROM 32 TO 32
OFFSET CHANGED FROM 32 TO 32
OFFSET CHANGED FROM 32 TO 32
OFFSET CHANGED FROM 32 TO 32
OFFSET CHANGED FROM 32 TO 32
OFFSET CHANGED FROM 32 TO 32
OFFSET CHANGED FROM 32 TO 32
OFFSET CHANGED FROM 32 TO 32
OFFSET CHANGED FROM 32 TO 32
OFFSET CHANGED FROM 32 TO 32
OFFSET CHANGED FROM 32 TO 32
OFFSET CHANGED FROM 32 TO 32
OFFSET CHANGED FROM 32 TO 32
OFFSET CHANGED FROM 32 TO 32
OFFSET CHANGED FROM 32 TO 32
OFFSET CHANGED FROM 32 TO 32
OFFSET CHANGED FROM 32 TO 32
OFFSET CHANGED FROM 32 TO 32
OFFSET CHANGED FROM 32 TO 32
OFFSET CHANGED FROM 32 TO 32
Heartbeat CPU 0 instructions: 230000000 cycles: 309523396 heartbeat IPC: 0.504215 cumulative IPC: 0.620396 (Simulation time: 0 hr 11 min 17 sec) 
OFFSET CHANGED FROM 32 TO 32
OFFSET CHANGED FROM 32 TO 32
OFFSET CHANGED FROM 32 TO 32
OFFSET CHANGED FROM 32 TO 32
OFFSET CHANGED FROM 32 TO 32
OFFSET CHANGED FROM 32 TO 32
OFFSET CHANGED FROM 32 TO 32
OFFSET CHANGED FROM 32 TO 32
OFFSET CHANGED FROM 32 TO 32
OFFSET CHANGED FROM 32 TO 32
OFFSET CHANGED FROM 32 TO 32
OFFSET CHANGED FROM 32 TO 32
OFFSET CHANGED FROM 32 TO 32
OFFSET CHANGED FROM 32 TO 32
OFFSET CHANGED FROM 32 TO 32
OFFSET CHANGED FROM 32 TO 32
OFFSET CHANGED FROM 32 TO 32
OFFSET CHANGED FROM 32 TO 32
OFFSET CHANGED FROM 32 TO 32
OFFSET CHANGED FROM 32 TO 32
OFFSET CHANGED FROM 32 TO 32
OFFSET CHANGED FROM 32 TO 32
OFFSET CHANGED FROM 32 TO 32
OFFSET CHANGED FROM 32 TO 32
OFFSET CHANGED FROM 32 TO 32
OFFSET CHANGED FROM 32 TO 32
OFFSET CHANGED FROM 32 TO 32
OFFSET CHANGED FROM 32 TO 32
OFFSET CHANGED FROM 32 TO 32
OFFSET CHANGED FROM 32 TO 32
OFFSET CHANGED FROM 32 TO 32
OFFSET CHANGED FROM 32 TO 32
OFFSET CHANGED FROM 32 TO 32
OFFSET CHANGED FROM 32 TO 32
OFFSET CHANGED FROM 32 TO 32
OFFSET CHANGED FROM 32 TO 32
OFFSET CHANGED FROM 32 TO 32
OFFSET CHANGED FROM 32 TO 32
OFFSET CHANGED FROM 32 TO 32
OFFSET CHANGED FROM 32 TO 32
OFFSET CHANGED FROM 32 TO 32
OFFSET CHANGED FROM 32 TO 32
OFFSET CHANGED FROM 32 TO 32
OFFSET CHANGED FROM 32 TO 32
OFFSET CHANGED FROM 32 TO 32
OFFSET CHANGED FROM 32 TO 32
OFFSET CHANGED FROM 32 TO 32
OFFSET CHANGED FROM 32 TO 32
OFFSET CHANGED FROM 32 TO 32
OFFSET CHANGED FROM 32 TO 32
OFFSET CHANGED FROM 32 TO 32
OFFSET CHANGED FROM 32 TO 32
OFFSET CHANGED FROM 32 TO 32
OFFSET CHANGED FROM 32 TO 32
OFFSET CHANGED FROM 32 TO 32
OFFSET CHANGED FROM 32 TO 32
OFFSET CHANGED FROM 32 TO 32
OFFSET CHANGED FROM 32 TO 32
OFFSET CHANGED FROM 32 TO 32
OFFSET CHANGED FROM 32 TO 32
OFFSET CHANGED FROM 32 TO 32
OFFSET CHANGED FROM 32 TO 32
OFFSET CHANGED FROM 32 TO 32
OFFSET CHANGED FROM 32 TO 32
OFFSET CHANGED FROM 32 TO 32
OFFSET CHANGED FROM 32 TO 32
OFFSET CHANGED FROM 32 TO 32
OFFSET CHANGED FROM 32 TO 32
OFFSET CHANGED FROM 32 TO 32
OFFSET CHANGED FROM 32 TO 32
OFFSET CHANGED FROM 32 TO 32
OFFSET CHANGED FROM 32 TO 32
OFFSET CHANGED FROM 32 TO 32
OFFSET CHANGED FROM 32 TO 32
OFFSET CHANGED FROM 32 TO 32
OFFSET CHANGED FROM 32 TO 32
OFFSET CHANGED FROM 32 TO 32
OFFSET CHANGED FROM 32 TO 32
OFFSET CHANGED FROM 32 TO 32
OFFSET CHANGED FROM 32 TO 32
OFFSET CHANGED FROM 32 TO 32
OFFSET CHANGED FROM 32 TO 32
OFFSET CHANGED FROM 32 TO 32
OFFSET CHANGED FROM 32 TO 32
OFFSET CHANGED FROM 32 TO 32
OFFSET CHANGED FROM 32 TO 32
OFFSET CHANGED FROM 32 TO 32
OFFSET CHANGED FROM 32 TO 32
OFFSET CHANGED FROM 32 TO 32
OFFSET CHANGED FROM 32 TO 32
OFFSET CHANGED FROM 32 TO 32
OFFSET CHANGED FROM 32 TO 32
Heartbeat CPU 0 instructions: 240000003 cycles: 328532920 heartbeat IPC: 0.526052 cumulative IPC: 0.614595 (Simulation time: 0 hr 11 min 51 sec) 
OFFSET CHANGED FROM 32 TO 32
OFFSET CHANGED FROM 32 TO 32
OFFSET CHANGED FROM 32 TO 32
OFFSET CHANGED FROM 32 TO 32
OFFSET CHANGED FROM 32 TO 32
OFFSET CHANGED FROM 32 TO 32
OFFSET CHANGED FROM 32 TO 32
OFFSET CHANGED FROM 32 TO 32
OFFSET CHANGED FROM 32 TO 32
OFFSET CHANGED FROM 32 TO 32
OFFSET CHANGED FROM 32 TO 32
OFFSET CHANGED FROM 32 TO 32
OFFSET CHANGED FROM 32 TO 32
OFFSET CHANGED FROM 32 TO 32
OFFSET CHANGED FROM 32 TO 32
OFFSET CHANGED FROM 32 TO 32
OFFSET CHANGED FROM 32 TO 32
OFFSET CHANGED FROM 32 TO 32
OFFSET CHANGED FROM 32 TO 32
OFFSET CHANGED FROM 32 TO 32
OFFSET CHANGED FROM 32 TO 32
OFFSET CHANGED FROM 32 TO 32
OFFSET CHANGED FROM 32 TO 32
OFFSET CHANGED FROM 32 TO 32
OFFSET CHANGED FROM 32 TO 32
OFFSET CHANGED FROM 32 TO 32
OFFSET CHANGED FROM 32 TO 32
OFFSET CHANGED FROM 32 TO 32
OFFSET CHANGED FROM 32 TO 32
OFFSET CHANGED FROM 32 TO 32
OFFSET CHANGED FROM 32 TO 32
OFFSET CHANGED FROM 32 TO 32
OFFSET CHANGED FROM 32 TO 32
OFFSET CHANGED FROM 32 TO 32
OFFSET CHANGED FROM 32 TO 32
OFFSET CHANGED FROM 32 TO 32
OFFSET CHANGED FROM 32 TO 32
OFFSET CHANGED FROM 32 TO 32
OFFSET CHANGED FROM 32 TO 32
OFFSET CHANGED FROM 32 TO 32
OFFSET CHANGED FROM 32 TO 32
OFFSET CHANGED FROM 32 TO 32
OFFSET CHANGED FROM 32 TO 32
OFFSET CHANGED FROM 32 TO 32
OFFSET CHANGED FROM 32 TO 32
OFFSET CHANGED FROM 32 TO 32
OFFSET CHANGED FROM 32 TO 32
OFFSET CHANGED FROM 32 TO 32
OFFSET CHANGED FROM 32 TO 32
OFFSET CHANGED FROM 32 TO 32
OFFSET CHANGED FROM 32 TO 32
OFFSET CHANGED FROM 32 TO 32
OFFSET CHANGED FROM 32 TO 32
OFFSET CHANGED FROM 32 TO 32
OFFSET CHANGED FROM 32 TO 32
OFFSET CHANGED FROM 32 TO 32
OFFSET CHANGED FROM 32 TO 4
OFFSET CHANGED FROM 4 TO 5
OFFSET CHANGED FROM 5 TO 5
OFFSET CHANGED FROM 5 TO 5
OFFSET CHANGED FROM 5 TO 7
OFFSET CHANGED FROM 7 TO 6
OFFSET CHANGED FROM 6 TO 8
OFFSET CHANGED FROM 8 TO 10
PREFETCHING INTO L2 w/ PREFETCH SCORE 31 (MSHR OCC = 28)
PREFETCHING INTO L2 w/ PREFETCH SCORE 31 (MSHR OCC = 28)
PREFETCHING INTO L2 w/ PREFETCH SCORE 31 (MSHR OCC = 28)
OFFSET CHANGED FROM 10 TO 7
OFFSET CHANGED FROM 7 TO 9
OFFSET CHANGED FROM 9 TO 8
OFFSET CHANGED FROM 8 TO 5
OFFSET CHANGED FROM 5 TO 6
OFFSET CHANGED FROM 6 TO 8
OFFSET CHANGED FROM 8 TO 7
OFFSET CHANGED FROM 7 TO 6
OFFSET CHANGED FROM 6 TO 8
OFFSET CHANGED FROM 8 TO 7
OFFSET CHANGED FROM 7 TO 6
OFFSET CHANGED FROM 6 TO 9
PREFETCHING INTO L2 w/ PREFETCH SCORE 31 (MSHR OCC = 28)
OFFSET CHANGED FROM 9 TO 5
OFFSET CHANGED FROM 5 TO 5
OFFSET CHANGED FROM 5 TO 6
OFFSET CHANGED FROM 6 TO 5
OFFSET CHANGED FROM 5 TO 7
OFFSET CHANGED FROM 7 TO 6
OFFSET CHANGED FROM 6 TO 8
OFFSET CHANGED FROM 8 TO 7
OFFSET CHANGED FROM 7 TO 6
OFFSET CHANGED FROM 6 TO 9
OFFSET CHANGED FROM 9 TO 8
OFFSET CHANGED FROM 8 TO 6
OFFSET CHANGED FROM 6 TO 6
OFFSET CHANGED FROM 6 TO 8
OFFSET CHANGED FROM 8 TO 5
OFFSET CHANGED FROM 5 TO 9
OFFSET CHANGED FROM 9 TO 8
OFFSET CHANGED FROM 8 TO 7
OFFSET CHANGED FROM 7 TO 6
OFFSET CHANGED FROM 6 TO 8
OFFSET CHANGED FROM 8 TO 7
OFFSET CHANGED FROM 7 TO 5
OFFSET CHANGED FROM 5 TO 6
OFFSET CHANGED FROM 6 TO 8
OFFSET CHANGED FROM 8 TO 5
OFFSET CHANGED FROM 5 TO 6
OFFSET CHANGED FROM 6 TO 8
OFFSET CHANGED FROM 8 TO 7
OFFSET CHANGED FROM 7 TO 8
OFFSET CHANGED FROM 8 TO 6
OFFSET CHANGED FROM 6 TO 8
OFFSET CHANGED FROM 8 TO 7
OFFSET CHANGED FROM 7 TO 7
OFFSET CHANGED FROM 7 TO 9
PREFETCHING INTO L2 w/ PREFETCH SCORE 31 (MSHR OCC = 28)
PREFETCHING INTO L2 w/ PREFETCH SCORE 31 (MSHR OCC = 28)
OFFSET CHANGED FROM 9 TO 8
OFFSET CHANGED FROM 8 TO 5
OFFSET CHANGED FROM 5 TO 9
OFFSET CHANGED FROM 9 TO 10
PREFETCHING INTO L2 w/ PREFETCH SCORE 31 (MSHR OCC = 28)
PREFETCHING INTO L2 w/ PREFETCH SCORE 31 (MSHR OCC = 28)
PREFETCHING INTO L2 w/ PREFETCH SCORE 31 (MSHR OCC = 28)
OFFSET CHANGED FROM 10 TO 5
OFFSET CHANGED FROM 5 TO 6
OFFSET CHANGED FROM 6 TO 8
OFFSET CHANGED FROM 8 TO 7
OFFSET CHANGED FROM 7 TO 5
OFFSET CHANGED FROM 5 TO 9
OFFSET CHANGED FROM 9 TO 7
OFFSET CHANGED FROM 7 TO 7
OFFSET CHANGED FROM 7 TO 9
OFFSET CHANGED FROM 9 TO 8
OFFSET CHANGED FROM 8 TO 5
OFFSET CHANGED FROM 5 TO 6
OFFSET CHANGED FROM 6 TO 8
OFFSET CHANGED FROM 8 TO 6
Heartbeat CPU 0 instructions: 250000001 cycles: 349082355 heartbeat IPC: 0.486631 cumulative IPC: 0.606619 (Simulation time: 0 hr 12 min 32 sec) 
OFFSET CHANGED FROM 6 TO 9
OFFSET CHANGED FROM 9 TO 8
OFFSET CHANGED FROM 8 TO 7
OFFSET CHANGED FROM 7 TO 6
OFFSET CHANGED FROM 6 TO 8
OFFSET CHANGED FROM 8 TO 8
OFFSET CHANGED FROM 8 TO 5
OFFSET CHANGED FROM 5 TO 6
OFFSET CHANGED FROM 6 TO 8
OFFSET CHANGED FROM 8 TO 7
OFFSET CHANGED FROM 7 TO 6
OFFSET CHANGED FROM 6 TO 8
OFFSET CHANGED FROM 8 TO 7
OFFSET CHANGED FROM 7 TO 6
OFFSET CHANGED FROM 6 TO 5
OFFSET CHANGED FROM 5 TO 5
OFFSET CHANGED FROM 5 TO 5
OFFSET CHANGED FROM 5 TO 6
OFFSET CHANGED FROM 6 TO 8
OFFSET CHANGED FROM 8 TO 5
OFFSET CHANGED FROM 5 TO 6
OFFSET CHANGED FROM 6 TO 6
OFFSET CHANGED FROM 6 TO 5
OFFSET CHANGED FROM 5 TO 4
OFFSET CHANGED FROM 4 TO 4
OFFSET CHANGED FROM 4 TO 4
OFFSET CHANGED FROM 4 TO 1
OFFSET CHANGED FROM 1 TO 32
OFFSET CHANGED FROM 32 TO 32
OFFSET CHANGED FROM 32 TO 32
OFFSET CHANGED FROM 32 TO 32
OFFSET CHANGED FROM 32 TO 32
OFFSET CHANGED FROM 32 TO 32
OFFSET CHANGED FROM 32 TO 32
OFFSET CHANGED FROM 32 TO 32
OFFSET CHANGED FROM 32 TO 32
OFFSET CHANGED FROM 32 TO 32
OFFSET CHANGED FROM 32 TO 32
OFFSET CHANGED FROM 32 TO 32
OFFSET CHANGED FROM 32 TO 32
OFFSET CHANGED FROM 32 TO 32
OFFSET CHANGED FROM 32 TO 32
OFFSET CHANGED FROM 32 TO 32
OFFSET CHANGED FROM 32 TO 32
OFFSET CHANGED FROM 32 TO 32
OFFSET CHANGED FROM 32 TO 32
OFFSET CHANGED FROM 32 TO 32
OFFSET CHANGED FROM 32 TO 32
OFFSET CHANGED FROM 32 TO 32
OFFSET CHANGED FROM 32 TO 32
OFFSET CHANGED FROM 32 TO 32
OFFSET CHANGED FROM 32 TO 32
OFFSET CHANGED FROM 32 TO 32
OFFSET CHANGED FROM 32 TO 32
OFFSET CHANGED FROM 32 TO 32
OFFSET CHANGED FROM 32 TO 32
OFFSET CHANGED FROM 32 TO 32
OFFSET CHANGED FROM 32 TO 32
OFFSET CHANGED FROM 32 TO 32
OFFSET CHANGED FROM 32 TO 32
OFFSET CHANGED FROM 32 TO 32
OFFSET CHANGED FROM 32 TO 32
OFFSET CHANGED FROM 32 TO 32
OFFSET CHANGED FROM 32 TO 32
OFFSET CHANGED FROM 32 TO 32
OFFSET CHANGED FROM 32 TO 32
OFFSET CHANGED FROM 32 TO 32
OFFSET CHANGED FROM 32 TO 32
OFFSET CHANGED FROM 32 TO 32
OFFSET CHANGED FROM 32 TO 32
OFFSET CHANGED FROM 32 TO 32
OFFSET CHANGED FROM 32 TO 32
OFFSET CHANGED FROM 32 TO 32
OFFSET CHANGED FROM 32 TO 32
OFFSET CHANGED FROM 32 TO 32
OFFSET CHANGED FROM 32 TO 32
OFFSET CHANGED FROM 32 TO 32
OFFSET CHANGED FROM 32 TO 32
OFFSET CHANGED FROM 32 TO 32
OFFSET CHANGED FROM 32 TO 32
OFFSET CHANGED FROM 32 TO 32
OFFSET CHANGED FROM 32 TO 32
OFFSET CHANGED FROM 32 TO 32
OFFSET CHANGED FROM 32 TO 32
OFFSET CHANGED FROM 32 TO 32
OFFSET CHANGED FROM 32 TO 32
OFFSET CHANGED FROM 32 TO 32
OFFSET CHANGED FROM 32 TO 32
OFFSET CHANGED FROM 32 TO 32
OFFSET CHANGED FROM 32 TO 32
OFFSET CHANGED FROM 32 TO 32
OFFSET CHANGED FROM 32 TO 32
OFFSET CHANGED FROM 32 TO 32
Heartbeat CPU 0 instructions: 260000003 cycles: 368682320 heartbeat IPC: 0.510205 cumulative IPC: 0.601209 (Simulation time: 0 hr 13 min 11 sec) 
OFFSET CHANGED FROM 32 TO 32
OFFSET CHANGED FROM 32 TO 32
OFFSET CHANGED FROM 32 TO 32
OFFSET CHANGED FROM 32 TO 32
OFFSET CHANGED FROM 32 TO 32
OFFSET CHANGED FROM 32 TO 32
OFFSET CHANGED FROM 32 TO 32
OFFSET CHANGED FROM 32 TO 32
OFFSET CHANGED FROM 32 TO 32
OFFSET CHANGED FROM 32 TO 32
OFFSET CHANGED FROM 32 TO 32
OFFSET CHANGED FROM 32 TO 32
OFFSET CHANGED FROM 32 TO 32
OFFSET CHANGED FROM 32 TO 32
OFFSET CHANGED FROM 32 TO 32
OFFSET CHANGED FROM 32 TO 32
OFFSET CHANGED FROM 32 TO 32
OFFSET CHANGED FROM 32 TO 32
OFFSET CHANGED FROM 32 TO 32
OFFSET CHANGED FROM 32 TO 32
OFFSET CHANGED FROM 32 TO 32
OFFSET CHANGED FROM 32 TO 32
OFFSET CHANGED FROM 32 TO 32
OFFSET CHANGED FROM 32 TO 32
OFFSET CHANGED FROM 32 TO 32
OFFSET CHANGED FROM 32 TO 32
OFFSET CHANGED FROM 32 TO 32
OFFSET CHANGED FROM 32 TO 32
OFFSET CHANGED FROM 32 TO 32
OFFSET CHANGED FROM 32 TO 32
OFFSET CHANGED FROM 32 TO 32
OFFSET CHANGED FROM 32 TO 32
OFFSET CHANGED FROM 32 TO 32
OFFSET CHANGED FROM 32 TO 32
OFFSET CHANGED FROM 32 TO 32
OFFSET CHANGED FROM 32 TO 32
OFFSET CHANGED FROM 32 TO 32
OFFSET CHANGED FROM 32 TO 32
OFFSET CHANGED FROM 32 TO 32
OFFSET CHANGED FROM 32 TO 32
OFFSET CHANGED FROM 32 TO 32
OFFSET CHANGED FROM 32 TO 32
OFFSET CHANGED FROM 32 TO 32
OFFSET CHANGED FROM 32 TO 32
OFFSET CHANGED FROM 32 TO 32
OFFSET CHANGED FROM 32 TO 32
OFFSET CHANGED FROM 32 TO 32
OFFSET CHANGED FROM 32 TO 32
OFFSET CHANGED FROM 32 TO 32
OFFSET CHANGED FROM 32 TO 32
OFFSET CHANGED FROM 32 TO 32
OFFSET CHANGED FROM 32 TO 32
OFFSET CHANGED FROM 32 TO 32
OFFSET CHANGED FROM 32 TO 32
OFFSET CHANGED FROM 32 TO 32
OFFSET CHANGED FROM 32 TO 32
OFFSET CHANGED FROM 32 TO 32
OFFSET CHANGED FROM 32 TO 32
OFFSET CHANGED FROM 32 TO 32
OFFSET CHANGED FROM 32 TO 32
OFFSET CHANGED FROM 32 TO 32
OFFSET CHANGED FROM 32 TO 32
OFFSET CHANGED FROM 32 TO 32
OFFSET CHANGED FROM 32 TO 32
OFFSET CHANGED FROM 32 TO 32
OFFSET CHANGED FROM 32 TO 32
OFFSET CHANGED FROM 32 TO 32
OFFSET CHANGED FROM 32 TO 32
OFFSET CHANGED FROM 32 TO 32
OFFSET CHANGED FROM 32 TO 32
OFFSET CHANGED FROM 32 TO 32
OFFSET CHANGED FROM 32 TO 32
OFFSET CHANGED FROM 32 TO 32
OFFSET CHANGED FROM 32 TO 32
OFFSET CHANGED FROM 32 TO 32
OFFSET CHANGED FROM 32 TO 32
OFFSET CHANGED FROM 32 TO 32
OFFSET CHANGED FROM 32 TO 32
OFFSET CHANGED FROM 32 TO 32
OFFSET CHANGED FROM 32 TO 32
OFFSET CHANGED FROM 32 TO 32
OFFSET CHANGED FROM 32 TO 32
OFFSET CHANGED FROM 32 TO 32
OFFSET CHANGED FROM 32 TO 32
OFFSET CHANGED FROM 32 TO 32
OFFSET CHANGED FROM 32 TO 32
OFFSET CHANGED FROM 32 TO 32
OFFSET CHANGED FROM 32 TO 32
OFFSET CHANGED FROM 32 TO 32
Heartbeat CPU 0 instructions: 270000003 cycles: 389434278 heartbeat IPC: 0.481882 cumulative IPC: 0.594517 (Simulation time: 0 hr 13 min 46 sec) 
OFFSET CHANGED FROM 32 TO 32
OFFSET CHANGED FROM 32 TO 32
OFFSET CHANGED FROM 32 TO 32
OFFSET CHANGED FROM 32 TO 32
OFFSET CHANGED FROM 32 TO 32
OFFSET CHANGED FROM 32 TO 32
OFFSET CHANGED FROM 32 TO 32
OFFSET CHANGED FROM 32 TO 32
OFFSET CHANGED FROM 32 TO 32
OFFSET CHANGED FROM 32 TO 32
OFFSET CHANGED FROM 32 TO 32
OFFSET CHANGED FROM 32 TO 32
OFFSET CHANGED FROM 32 TO 32
OFFSET CHANGED FROM 32 TO 32
OFFSET CHANGED FROM 32 TO 32
OFFSET CHANGED FROM 32 TO 32
OFFSET CHANGED FROM 32 TO 32
OFFSET CHANGED FROM 32 TO 32
OFFSET CHANGED FROM 32 TO 32
OFFSET CHANGED FROM 32 TO 32
OFFSET CHANGED FROM 32 TO 32
OFFSET CHANGED FROM 32 TO 32
OFFSET CHANGED FROM 32 TO 32
OFFSET CHANGED FROM 32 TO 32
OFFSET CHANGED FROM 32 TO 32
OFFSET CHANGED FROM 32 TO 32
OFFSET CHANGED FROM 32 TO 32
OFFSET CHANGED FROM 32 TO 32
OFFSET CHANGED FROM 32 TO 32
OFFSET CHANGED FROM 32 TO 32
OFFSET CHANGED FROM 32 TO 32
OFFSET CHANGED FROM 32 TO 32
OFFSET CHANGED FROM 32 TO 32
OFFSET CHANGED FROM 32 TO 32
OFFSET CHANGED FROM 32 TO 32
OFFSET CHANGED FROM 32 TO 32
OFFSET CHANGED FROM 32 TO 32
OFFSET CHANGED FROM 32 TO 32
OFFSET CHANGED FROM 32 TO 32
OFFSET CHANGED FROM 32 TO 32
OFFSET CHANGED FROM 32 TO 32
OFFSET CHANGED FROM 32 TO 32
OFFSET CHANGED FROM 32 TO 32
OFFSET CHANGED FROM 32 TO 32
OFFSET CHANGED FROM 32 TO 32
OFFSET CHANGED FROM 32 TO 32
OFFSET CHANGED FROM 32 TO 32
OFFSET CHANGED FROM 32 TO 32
OFFSET CHANGED FROM 32 TO 32
OFFSET CHANGED FROM 32 TO 32
OFFSET CHANGED FROM 32 TO 32
OFFSET CHANGED FROM 32 TO 32
OFFSET CHANGED FROM 32 TO 32
OFFSET CHANGED FROM 32 TO 32
OFFSET CHANGED FROM 32 TO 32
OFFSET CHANGED FROM 32 TO 32
OFFSET CHANGED FROM 32 TO 32
OFFSET CHANGED FROM 32 TO 32
OFFSET CHANGED FROM 32 TO 32
OFFSET CHANGED FROM 32 TO 32
OFFSET CHANGED FROM 32 TO 32
OFFSET CHANGED FROM 32 TO 32
OFFSET CHANGED FROM 32 TO 32
OFFSET CHANGED FROM 32 TO 32
OFFSET CHANGED FROM 32 TO 32
OFFSET CHANGED FROM 32 TO 32
OFFSET CHANGED FROM 32 TO 32
Heartbeat CPU 0 instructions: 280000000 cycles: 407529360 heartbeat IPC: 0.552636 cumulative IPC: 0.592565 (Simulation time: 0 hr 14 min 20 sec) 
OFFSET CHANGED FROM 32 TO 32
OFFSET CHANGED FROM 32 TO 32
OFFSET CHANGED FROM 32 TO 32
OFFSET CHANGED FROM 32 TO 32
OFFSET CHANGED FROM 32 TO 32
OFFSET CHANGED FROM 32 TO 32
OFFSET CHANGED FROM 32 TO 32
OFFSET CHANGED FROM 32 TO 32
OFFSET CHANGED FROM 32 TO 32
OFFSET CHANGED FROM 32 TO 32
OFFSET CHANGED FROM 32 TO 32
OFFSET CHANGED FROM 32 TO 32
OFFSET CHANGED FROM 32 TO 32
OFFSET CHANGED FROM 32 TO 32
OFFSET CHANGED FROM 32 TO 32
OFFSET CHANGED FROM 32 TO 32
OFFSET CHANGED FROM 32 TO 32
OFFSET CHANGED FROM 32 TO 32
OFFSET CHANGED FROM 32 TO 32
OFFSET CHANGED FROM 32 TO 32
OFFSET CHANGED FROM 32 TO 32
OFFSET CHANGED FROM 32 TO 32
OFFSET CHANGED FROM 32 TO 32
OFFSET CHANGED FROM 32 TO 32
OFFSET CHANGED FROM 32 TO 32
OFFSET CHANGED FROM 32 TO 32
OFFSET CHANGED FROM 32 TO 32
OFFSET CHANGED FROM 32 TO 32
OFFSET CHANGED FROM 32 TO 32
OFFSET CHANGED FROM 32 TO 32
OFFSET CHANGED FROM 32 TO 32
Heartbeat CPU 0 instructions: 290000002 cycles: 421395977 heartbeat IPC: 0.721157 cumulative IPC: 0.597 (Simulation time: 0 hr 14 min 49 sec) 
OFFSET CHANGED FROM 32 TO 32
OFFSET CHANGED FROM 32 TO 32
OFFSET CHANGED FROM 32 TO 32
OFFSET CHANGED FROM 32 TO 32
OFFSET CHANGED FROM 32 TO 32
OFFSET CHANGED FROM 32 TO 32
OFFSET CHANGED FROM 32 TO 32
OFFSET CHANGED FROM 32 TO 32
OFFSET CHANGED FROM 32 TO 32
OFFSET CHANGED FROM 32 TO 32
OFFSET CHANGED FROM 32 TO 32
OFFSET CHANGED FROM 32 TO 32
OFFSET CHANGED FROM 32 TO 32
OFFSET CHANGED FROM 32 TO 32
OFFSET CHANGED FROM 32 TO 32
OFFSET CHANGED FROM 32 TO 32
OFFSET CHANGED FROM 32 TO 32
OFFSET CHANGED FROM 32 TO 32
OFFSET CHANGED FROM 32 TO 32
OFFSET CHANGED FROM 32 TO 32
OFFSET CHANGED FROM 32 TO 32
OFFSET CHANGED FROM 32 TO 32
OFFSET CHANGED FROM 32 TO 32
OFFSET CHANGED FROM 32 TO 32
OFFSET CHANGED FROM 32 TO 32
OFFSET CHANGED FROM 32 TO 32
OFFSET CHANGED FROM 32 TO 32
OFFSET CHANGED FROM 32 TO 32
OFFSET CHANGED FROM 32 TO 32
OFFSET CHANGED FROM 32 TO 32
OFFSET CHANGED FROM 32 TO 32
Heartbeat CPU 0 instructions: 300000002 cycles: 435149923 heartbeat IPC: 0.727064 cumulative IPC: 0.601303 (Simulation time: 0 hr 15 min 16 sec) 
Finished CPU 0 instructions: 250000000 cycles: 415763830 cumulative IPC: 0.601303 (Simulation time: 0 hr 15 min 16 sec) 

ChampSim completed all CPUs

Region of Interest Statistics

CPU 0 cumulative IPC: 0.601303 instructions: 250000000 cycles: 415763830
L1D TOTAL     ACCESS:   55764779  HIT:   50667405  MISS:    5097374
L1D LOAD      ACCESS:   30451933  HIT:   26154581  MISS:    4297352
L1D RFO       ACCESS:   25312846  HIT:   24512824  MISS:     800022
L1D PREFETCH  ACCESS:          0  HIT:          0  MISS:          0
L1D WRITEBACK ACCESS:          0  HIT:          0  MISS:          0
L1D PREFETCH  REQUESTED:          0  ISSUED:          0  USEFUL:          0  USELESS:          0
L1D AVERAGE MISS LATENCY: 149.293 cycles
L1I TOTAL     ACCESS:   45224521  HIT:   45224463  MISS:         58
L1I LOAD      ACCESS:   45224495  HIT:   45224460  MISS:         35
L1I RFO       ACCESS:          0  HIT:          0  MISS:          0
L1I PREFETCH  ACCESS:         26  HIT:          3  MISS:         23
L1I WRITEBACK ACCESS:          0  HIT:          0  MISS:          0
L1I PREFETCH  REQUESTED:         41  ISSUED:         41  USEFUL:         13  USELESS:          0
L1I AVERAGE MISS LATENCY: 186.293 cycles
L2C TOTAL     ACCESS:    8504908  HIT:    3400851  MISS:    5104057
L2C LOAD      ACCESS:    4297385  HIT:    1850286  MISS:    2447099
L2C RFO       ACCESS:     800022  HIT:          1  MISS:     800021
L2C PREFETCH  ACCESS:    1857600  HIT:        771  MISS:    1856829
L2C WRITEBACK ACCESS:    1549901  HIT:    1549793  MISS:        108
L2C PREFETCH  REQUESTED:    2306440  ISSUED:    2306440  USEFUL:    1850224  USELESS:       6630
L2C AVERAGE MISS LATENCY: 226.683 cycles
LLC TOTAL     ACCESS:    6653850  HIT:    1554929  MISS:    5098921
LLC LOAD      ACCESS:    1998544  HIT:       2976  MISS:    1995568
LLC RFO       ACCESS:     800021  HIT:        556  MISS:     799465
LLC PREFETCH  ACCESS:    2305393  HIT:       1522  MISS:    2303871
LLC WRITEBACK ACCESS:    1549892  HIT:    1549875  MISS:         17
LLC PREFETCH  REQUESTED:          0  ISSUED:          0  USEFUL:       2901  USELESS:    2300970
LLC AVERAGE MISS LATENCY: 213.942 cycles
Major fault: 0 Minor fault: 93932
CPU 0 L1I next line prefetcher final stats
CPU 0 L2C best offset prefetcher final stats

DRAM Statistics
 CHANNEL 0
 RQ ROW_BUFFER_HIT:    2346709  ROW_BUFFER_MISS:    2752164
 DBUS_CONGESTED:    1704284
 WQ ROW_BUFFER_HIT:     842472  ROW_BUFFER_MISS:     707416  FULL:          0

 AVG_CONGESTED_CYCLE: 6

CPU 0 Branch Prediction Accuracy: 79.9879% MPKI: 13.2782 Average ROB Occupancy at Mispredict: 65.6953

Branch types
NOT_BRANCH: 233411924 93.3648%
BRANCH_DIRECT_JUMP: 160015 0.064006%
BRANCH_INDIRECT: 0 0%
BRANCH_CONDITIONAL: 12308248 4.9233%
BRANCH_DIRECT_CALL: 2059732 0.823893%
BRANCH_INDIRECT_CALL: 0 0%
BRANCH_RETURN: 2059732 0.823893%
BRANCH_OTHER: 0 0%

