
*** ChampSim Multicore Out-of-Order Simulator ***

Warmup Instructions: 50000000
Simulation Instructions: 250000000
Number of CPUs: 1
LLC sets: 2048
LLC ways: 16
Off-chip DRAM Size: 4096 MB Channels: 1 Width: 64-bit Data Rate: 3200 MT/s

CPU 0 runs /home/wezelis2/ECE511_Project/ChampSim/dpc3_traces/444.namd-166B.champsimtrace.xz
CPU 0 Bimodal branch predictor
CPU 0 L1I next line prefetcher
INIT BEST RECENT REQUEST TABLE MODULE
INIT DELAY QUEUE MODULE
INIT PREFETCH THROTTLE MODULE
INIT OFFSET SCORE MODULE
INIT BEST OFFSET PREFETCHER
OFFSET CHANGED FROM 1 TO 1
OFFSET CHANGED FROM 1 TO 16
OFFSET CHANGED FROM 16 TO 1
OFFSET CHANGED FROM 1 TO 12
OFFSET CHANGED FROM 12 TO 1
OFFSET CHANGED FROM 1 TO 1
Heartbeat CPU 0 instructions: 10000003 cycles: 3856272 heartbeat IPC: 2.59318 cumulative IPC: 2.59318 (Simulation time: 0 hr 0 min 26 sec) 
OFFSET CHANGED FROM 1 TO 2
OFFSET CHANGED FROM 2 TO 1
OFFSET CHANGED FROM 1 TO 2
OFFSET CHANGED FROM 2 TO 2
CHANGING MSHR THRESHOLD FROM 28 TO 26
CHANGING MSHR THRESHOLD FROM 26 TO 24
CHANGING MSHR THRESHOLD FROM 24 TO 23
CHANGING MSHR THRESHOLD FROM 23 TO 21
CHANGING MSHR THRESHOLD FROM 21 TO 19
CHANGING MSHR THRESHOLD FROM 19 TO 18
CHANGING MSHR THRESHOLD FROM 18 TO 16
CHANGING MSHR THRESHOLD FROM 16 TO 15
CHANGING MSHR THRESHOLD FROM 15 TO 13
CHANGING MSHR THRESHOLD FROM 13 TO 11
CHANGING MSHR THRESHOLD FROM 11 TO 10
CHANGING MSHR THRESHOLD FROM 10 TO 8
CHANGING MSHR THRESHOLD FROM 8 TO 6
CHANGING MSHR THRESHOLD FROM 6 TO 5
CHANGING MSHR THRESHOLD FROM 5 TO 3
CHANGING MSHR THRESHOLD FROM 3 TO 2
NO PREFETCH REQUEST BECAUSE PREFETCH SCORE 17 IS NOT GREATER THAN 20 (MSHR OCC = 2)
NO PREFETCH REQUEST BECAUSE PREFETCH SCORE 17 IS NOT GREATER THAN 20 (MSHR OCC = 2)
NO PREFETCH REQUEST BECAUSE PREFETCH SCORE 17 IS NOT GREATER THAN 20 (MSHR OCC = 2)
CHANGING MSHR THRESHOLD FROM 2 TO 3
CHANGING MSHR THRESHOLD FROM 3 TO 5
CHANGING MSHR THRESHOLD FROM 5 TO 6
CHANGING MSHR THRESHOLD FROM 6 TO 8
CHANGING MSHR THRESHOLD FROM 8 TO 10
CHANGING MSHR THRESHOLD FROM 10 TO 11
CHANGING MSHR THRESHOLD FROM 11 TO 13
CHANGING MSHR THRESHOLD FROM 13 TO 15
CHANGING MSHR THRESHOLD FROM 15 TO 16
CHANGING MSHR THRESHOLD FROM 16 TO 18
CHANGING MSHR THRESHOLD FROM 18 TO 19
CHANGING MSHR THRESHOLD FROM 19 TO 21
CHANGING MSHR THRESHOLD FROM 21 TO 23
CHANGING MSHR THRESHOLD FROM 23 TO 24
CHANGING MSHR THRESHOLD FROM 24 TO 26
CHANGING MSHR THRESHOLD FROM 26 TO 28
Heartbeat CPU 0 instructions: 20000002 cycles: 7731601 heartbeat IPC: 2.58043 cumulative IPC: 2.58679 (Simulation time: 0 hr 0 min 54 sec) 
OFFSET CHANGED FROM 2 TO 2
OFFSET CHANGED FROM 2 TO 3
OFFSET CHANGED FROM 3 TO 3
Heartbeat CPU 0 instructions: 30000002 cycles: 11385618 heartbeat IPC: 2.73671 cumulative IPC: 2.6349 (Simulation time: 0 hr 1 min 20 sec) 
OFFSET CHANGED FROM 3 TO 1
OFFSET CHANGED FROM 1 TO 1
OFFSET CHANGED FROM 1 TO 1
OFFSET CHANGED FROM 1 TO 1
OFFSET CHANGED FROM 1 TO 16
CHANGING MSHR THRESHOLD FROM 28 TO 26
CHANGING MSHR THRESHOLD FROM 26 TO 28
Heartbeat CPU 0 instructions: 40000003 cycles: 15212777 heartbeat IPC: 2.6129 cumulative IPC: 2.62937 (Simulation time: 0 hr 1 min 47 sec) 
OFFSET CHANGED FROM 16 TO 15
CHANGING MSHR THRESHOLD FROM 28 TO 26
CHANGING MSHR THRESHOLD FROM 26 TO 24
CHANGING MSHR THRESHOLD FROM 24 TO 23
CHANGING MSHR THRESHOLD FROM 23 TO 21
CHANGING MSHR THRESHOLD FROM 21 TO 19
CHANGING MSHR THRESHOLD FROM 19 TO 18
CHANGING MSHR THRESHOLD FROM 18 TO 19
CHANGING MSHR THRESHOLD FROM 19 TO 21
CHANGING MSHR THRESHOLD FROM 21 TO 23
CHANGING MSHR THRESHOLD FROM 23 TO 24
CHANGING MSHR THRESHOLD FROM 24 TO 26
CHANGING MSHR THRESHOLD FROM 26 TO 28
CHANGING MSHR THRESHOLD FROM 28 TO 26
CHANGING MSHR THRESHOLD FROM 26 TO 24
CHANGING MSHR THRESHOLD FROM 24 TO 23
CHANGING MSHR THRESHOLD FROM 23 TO 21
CHANGING MSHR THRESHOLD FROM 21 TO 19
CHANGING MSHR THRESHOLD FROM 19 TO 18
CHANGING MSHR THRESHOLD FROM 18 TO 16
CHANGING MSHR THRESHOLD FROM 16 TO 15
CHANGING MSHR THRESHOLD FROM 15 TO 13
CHANGING MSHR THRESHOLD FROM 13 TO 11
CHANGING MSHR THRESHOLD FROM 11 TO 10
CHANGING MSHR THRESHOLD FROM 10 TO 8
CHANGING MSHR THRESHOLD FROM 8 TO 6
CHANGING MSHR THRESHOLD FROM 6 TO 5
CHANGING MSHR THRESHOLD FROM 5 TO 3
CHANGING MSHR THRESHOLD FROM 3 TO 2
NO PREFETCH REQUEST BECAUSE PREFETCH SCORE 18 IS NOT GREATER THAN 20 (MSHR OCC = 2)
NO PREFETCH REQUEST BECAUSE PREFETCH SCORE 18 IS NOT GREATER THAN 20 (MSHR OCC = 2)
NO PREFETCH REQUEST BECAUSE PREFETCH SCORE 18 IS NOT GREATER THAN 20 (MSHR OCC = 2)
NO PREFETCH REQUEST BECAUSE PREFETCH SCORE 18 IS NOT GREATER THAN 20 (MSHR OCC = 2)
NO PREFETCH REQUEST BECAUSE PREFETCH SCORE 18 IS NOT GREATER THAN 20 (MSHR OCC = 2)
NO PREFETCH REQUEST BECAUSE PREFETCH SCORE 18 IS NOT GREATER THAN 20 (MSHR OCC = 2)
NO PREFETCH REQUEST BECAUSE PREFETCH SCORE 18 IS NOT GREATER THAN 20 (MSHR OCC = 2)
CHANGING MSHR THRESHOLD FROM 2 TO 3
CHANGING MSHR THRESHOLD FROM 3 TO 5
CHANGING MSHR THRESHOLD FROM 5 TO 6
CHANGING MSHR THRESHOLD FROM 6 TO 8
CHANGING MSHR THRESHOLD FROM 8 TO 10
CHANGING MSHR THRESHOLD FROM 10 TO 11
CHANGING MSHR THRESHOLD FROM 11 TO 13
CHANGING MSHR THRESHOLD FROM 13 TO 15
CHANGING MSHR THRESHOLD FROM 15 TO 16
CHANGING MSHR THRESHOLD FROM 16 TO 18
CHANGING MSHR THRESHOLD FROM 18 TO 19
CHANGING MSHR THRESHOLD FROM 19 TO 21
CHANGING MSHR THRESHOLD FROM 21 TO 23
CHANGING MSHR THRESHOLD FROM 23 TO 24
CHANGING MSHR THRESHOLD FROM 24 TO 26
CHANGING MSHR THRESHOLD FROM 26 TO 28
CHANGING MSHR THRESHOLD FROM 28 TO 26
CHANGING MSHR THRESHOLD FROM 26 TO 24
CHANGING MSHR THRESHOLD FROM 24 TO 23
CHANGING MSHR THRESHOLD FROM 23 TO 21
CHANGING MSHR THRESHOLD FROM 21 TO 19
CHANGING MSHR THRESHOLD FROM 19 TO 18
CHANGING MSHR THRESHOLD FROM 18 TO 16
CHANGING MSHR THRESHOLD FROM 16 TO 15
CHANGING MSHR THRESHOLD FROM 15 TO 13
CHANGING MSHR THRESHOLD FROM 13 TO 11
CHANGING MSHR THRESHOLD FROM 11 TO 10
CHANGING MSHR THRESHOLD FROM 10 TO 8
CHANGING MSHR THRESHOLD FROM 8 TO 6
CHANGING MSHR THRESHOLD FROM 6 TO 5
CHANGING MSHR THRESHOLD FROM 5 TO 3
CHANGING MSHR THRESHOLD FROM 3 TO 2
NO PREFETCH REQUEST BECAUSE PREFETCH SCORE 18 IS NOT GREATER THAN 20 (MSHR OCC = 2)
NO PREFETCH REQUEST BECAUSE PREFETCH SCORE 18 IS NOT GREATER THAN 20 (MSHR OCC = 2)
NO PREFETCH REQUEST BECAUSE PREFETCH SCORE 18 IS NOT GREATER THAN 20 (MSHR OCC = 2)
NO PREFETCH REQUEST BECAUSE PREFETCH SCORE 18 IS NOT GREATER THAN 20 (MSHR OCC = 2)
CHANGING MSHR THRESHOLD FROM 2 TO 3
CHANGING MSHR THRESHOLD FROM 3 TO 5
CHANGING MSHR THRESHOLD FROM 5 TO 6
CHANGING MSHR THRESHOLD FROM 6 TO 8
CHANGING MSHR THRESHOLD FROM 8 TO 10
CHANGING MSHR THRESHOLD FROM 10 TO 11
CHANGING MSHR THRESHOLD FROM 11 TO 13
CHANGING MSHR THRESHOLD FROM 13 TO 15
CHANGING MSHR THRESHOLD FROM 15 TO 16
CHANGING MSHR THRESHOLD FROM 16 TO 18
CHANGING MSHR THRESHOLD FROM 18 TO 19
CHANGING MSHR THRESHOLD FROM 19 TO 21
CHANGING MSHR THRESHOLD FROM 21 TO 23
CHANGING MSHR THRESHOLD FROM 23 TO 24
CHANGING MSHR THRESHOLD FROM 24 TO 26
CHANGING MSHR THRESHOLD FROM 26 TO 28
OFFSET CHANGED FROM 15 TO 1
OFFSET CHANGED FROM 1 TO 1
Heartbeat CPU 0 instructions: 50000001 cycles: 18851066 heartbeat IPC: 2.74854 cumulative IPC: 2.65237 (Simulation time: 0 hr 2 min 13 sec) 

Warmup complete CPU 0 instructions: 50000001 cycles: 18851066 (Simulation time: 0 hr 2 min 13 sec) 

OFFSET CHANGED FROM 1 TO 15
OFFSET CHANGED FROM 15 TO 3
OFFSET CHANGED FROM 3 TO 4
OFFSET CHANGED FROM 4 TO 3
Heartbeat CPU 0 instructions: 60000002 cycles: 24275941 heartbeat IPC: 1.84336 cumulative IPC: 1.84336 (Simulation time: 0 hr 2 min 36 sec) 
OFFSET CHANGED FROM 3 TO 3
OFFSET CHANGED FROM 3 TO 2
OFFSET CHANGED FROM 2 TO 3
OFFSET CHANGED FROM 3 TO 15
Heartbeat CPU 0 instructions: 70000000 cycles: 29682739 heartbeat IPC: 1.84952 cumulative IPC: 1.84644 (Simulation time: 0 hr 2 min 59 sec) 
OFFSET CHANGED FROM 15 TO 9
OFFSET CHANGED FROM 9 TO 2
OFFSET CHANGED FROM 2 TO 7
Heartbeat CPU 0 instructions: 80000003 cycles: 34928067 heartbeat IPC: 1.90646 cumulative IPC: 1.86602 (Simulation time: 0 hr 3 min 16 sec) 
OFFSET CHANGED FROM 7 TO 15
OFFSET CHANGED FROM 15 TO 1
OFFSET CHANGED FROM 1 TO 1
OFFSET CHANGED FROM 1 TO 2
Heartbeat CPU 0 instructions: 90000001 cycles: 40307555 heartbeat IPC: 1.85891 cumulative IPC: 1.86424 (Simulation time: 0 hr 3 min 36 sec) 
OFFSET CHANGED FROM 2 TO 1
OFFSET CHANGED FROM 1 TO 1
OFFSET CHANGED FROM 1 TO 2
Heartbeat CPU 0 instructions: 100000001 cycles: 45664395 heartbeat IPC: 1.86677 cumulative IPC: 1.86474 (Simulation time: 0 hr 3 min 56 sec) 
OFFSET CHANGED FROM 2 TO 2
OFFSET CHANGED FROM 2 TO 8
OFFSET CHANGED FROM 8 TO 9
OFFSET CHANGED FROM 9 TO 3
OFFSET CHANGED FROM 3 TO 1
Heartbeat CPU 0 instructions: 110000000 cycles: 51147135 heartbeat IPC: 1.82391 cumulative IPC: 1.85781 (Simulation time: 0 hr 4 min 16 sec) 
OFFSET CHANGED FROM 1 TO 3
OFFSET CHANGED FROM 3 TO 2
OFFSET CHANGED FROM 2 TO 2
OFFSET CHANGED FROM 2 TO 3
OFFSET CHANGED FROM 3 TO 2
Heartbeat CPU 0 instructions: 120000003 cycles: 56646777 heartbeat IPC: 1.8183 cumulative IPC: 1.85206 (Simulation time: 0 hr 4 min 38 sec) 
OFFSET CHANGED FROM 2 TO 3
OFFSET CHANGED FROM 3 TO 1
OFFSET CHANGED FROM 1 TO 4
Heartbeat CPU 0 instructions: 130000001 cycles: 61945443 heartbeat IPC: 1.88727 cumulative IPC: 1.85639 (Simulation time: 0 hr 4 min 57 sec) 
OFFSET CHANGED FROM 4 TO 3
OFFSET CHANGED FROM 3 TO 3
OFFSET CHANGED FROM 3 TO 5
Heartbeat CPU 0 instructions: 140000002 cycles: 67341326 heartbeat IPC: 1.85326 cumulative IPC: 1.85604 (Simulation time: 0 hr 5 min 16 sec) 
OFFSET CHANGED FROM 5 TO 6
OFFSET CHANGED FROM 6 TO 3
CHANGING MSHR THRESHOLD FROM 28 TO 26
CHANGING MSHR THRESHOLD FROM 26 TO 24
CHANGING MSHR THRESHOLD FROM 24 TO 26
CHANGING MSHR THRESHOLD FROM 26 TO 28
OFFSET CHANGED FROM 3 TO 4
Heartbeat CPU 0 instructions: 150000001 cycles: 72712966 heartbeat IPC: 1.86163 cumulative IPC: 1.8566 (Simulation time: 0 hr 5 min 35 sec) 
OFFSET CHANGED FROM 4 TO 3
OFFSET CHANGED FROM 3 TO 2
OFFSET CHANGED FROM 2 TO 4
OFFSET CHANGED FROM 4 TO 11
CHANGING MSHR THRESHOLD FROM 28 TO 26
CHANGING MSHR THRESHOLD FROM 26 TO 24
CHANGING MSHR THRESHOLD FROM 24 TO 23
CHANGING MSHR THRESHOLD FROM 23 TO 21
CHANGING MSHR THRESHOLD FROM 21 TO 19
CHANGING MSHR THRESHOLD FROM 19 TO 18
CHANGING MSHR THRESHOLD FROM 18 TO 16
CHANGING MSHR THRESHOLD FROM 16 TO 15
CHANGING MSHR THRESHOLD FROM 15 TO 13
CHANGING MSHR THRESHOLD FROM 13 TO 11
CHANGING MSHR THRESHOLD FROM 11 TO 10
CHANGING MSHR THRESHOLD FROM 10 TO 8
CHANGING MSHR THRESHOLD FROM 8 TO 6
CHANGING MSHR THRESHOLD FROM 6 TO 5
CHANGING MSHR THRESHOLD FROM 5 TO 3
CHANGING MSHR THRESHOLD FROM 3 TO 5
CHANGING MSHR THRESHOLD FROM 5 TO 6
CHANGING MSHR THRESHOLD FROM 6 TO 8
CHANGING MSHR THRESHOLD FROM 8 TO 10
CHANGING MSHR THRESHOLD FROM 10 TO 11
CHANGING MSHR THRESHOLD FROM 11 TO 13
CHANGING MSHR THRESHOLD FROM 13 TO 15
CHANGING MSHR THRESHOLD FROM 15 TO 16
CHANGING MSHR THRESHOLD FROM 16 TO 18
CHANGING MSHR THRESHOLD FROM 18 TO 19
CHANGING MSHR THRESHOLD FROM 19 TO 21
CHANGING MSHR THRESHOLD FROM 21 TO 23
CHANGING MSHR THRESHOLD FROM 23 TO 24
CHANGING MSHR THRESHOLD FROM 24 TO 26
CHANGING MSHR THRESHOLD FROM 26 TO 28
OFFSET CHANGED FROM 11 TO 3
Heartbeat CPU 0 instructions: 160000003 cycles: 78164699 heartbeat IPC: 1.83428 cumulative IPC: 1.85455 (Simulation time: 0 hr 5 min 54 sec) 
OFFSET CHANGED FROM 3 TO 2
OFFSET CHANGED FROM 2 TO 6
OFFSET CHANGED FROM 6 TO 2
OFFSET CHANGED FROM 2 TO 4
Heartbeat CPU 0 instructions: 170000000 cycles: 83587359 heartbeat IPC: 1.84411 cumulative IPC: 1.85367 (Simulation time: 0 hr 6 min 13 sec) 
OFFSET CHANGED FROM 4 TO 7
OFFSET CHANGED FROM 7 TO 12
OFFSET CHANGED FROM 12 TO 1
OFFSET CHANGED FROM 1 TO 2
Heartbeat CPU 0 instructions: 180000002 cycles: 89068364 heartbeat IPC: 1.82448 cumulative IPC: 1.8514 (Simulation time: 0 hr 6 min 33 sec) 
OFFSET CHANGED FROM 2 TO 2
OFFSET CHANGED FROM 2 TO 3
Heartbeat CPU 0 instructions: 190000002 cycles: 94341400 heartbeat IPC: 1.89644 cumulative IPC: 1.85454 (Simulation time: 0 hr 6 min 51 sec) 
OFFSET CHANGED FROM 3 TO 3
OFFSET CHANGED FROM 3 TO 10
OFFSET CHANGED FROM 10 TO 6
OFFSET CHANGED FROM 6 TO 11
OFFSET CHANGED FROM 11 TO 6
OFFSET CHANGED FROM 6 TO 2
Heartbeat CPU 0 instructions: 200000000 cycles: 100012726 heartbeat IPC: 1.76326 cumulative IPC: 1.84816 (Simulation time: 0 hr 7 min 14 sec) 
OFFSET CHANGED FROM 2 TO 1
OFFSET CHANGED FROM 1 TO 1
OFFSET CHANGED FROM 1 TO 11
OFFSET CHANGED FROM 11 TO 3
Heartbeat CPU 0 instructions: 210000000 cycles: 105540538 heartbeat IPC: 1.80903 cumulative IPC: 1.84567 (Simulation time: 0 hr 7 min 34 sec) 
OFFSET CHANGED FROM 3 TO 12
OFFSET CHANGED FROM 12 TO 6
OFFSET CHANGED FROM 6 TO 6
OFFSET CHANGED FROM 6 TO 4
Heartbeat CPU 0 instructions: 220000000 cycles: 111009062 heartbeat IPC: 1.82865 cumulative IPC: 1.84466 (Simulation time: 0 hr 7 min 53 sec) 
OFFSET CHANGED FROM 4 TO 4
OFFSET CHANGED FROM 4 TO 6
OFFSET CHANGED FROM 6 TO 3
Heartbeat CPU 0 instructions: 230000002 cycles: 116376135 heartbeat IPC: 1.86321 cumulative IPC: 1.84568 (Simulation time: 0 hr 8 min 12 sec) 
OFFSET CHANGED FROM 3 TO 11
OFFSET CHANGED FROM 11 TO 2
OFFSET CHANGED FROM 2 TO 6
OFFSET CHANGED FROM 6 TO 6
Heartbeat CPU 0 instructions: 240000000 cycles: 121769691 heartbeat IPC: 1.85406 cumulative IPC: 1.84612 (Simulation time: 0 hr 8 min 30 sec) 
OFFSET CHANGED FROM 6 TO 4
OFFSET CHANGED FROM 4 TO 12
OFFSET CHANGED FROM 12 TO 7
OFFSET CHANGED FROM 7 TO 8
Heartbeat CPU 0 instructions: 250000002 cycles: 127112749 heartbeat IPC: 1.87159 cumulative IPC: 1.84738 (Simulation time: 0 hr 8 min 52 sec) 
OFFSET CHANGED FROM 8 TO 6
CHANGING MSHR THRESHOLD FROM 28 TO 24
CHANGING MSHR THRESHOLD FROM 24 TO 26
CHANGING MSHR THRESHOLD FROM 26 TO 28
CHANGING MSHR THRESHOLD FROM 28 TO 26
CHANGING MSHR THRESHOLD FROM 26 TO 24
CHANGING MSHR THRESHOLD FROM 24 TO 26
CHANGING MSHR THRESHOLD FROM 26 TO 28
OFFSET CHANGED FROM 6 TO 3
OFFSET CHANGED FROM 3 TO 8
OFFSET CHANGED FROM 8 TO 5
OFFSET CHANGED FROM 5 TO 7
OFFSET CHANGED FROM 7 TO 6
Heartbeat CPU 0 instructions: 260000002 cycles: 132651307 heartbeat IPC: 1.80552 cumulative IPC: 1.84534 (Simulation time: 0 hr 9 min 13 sec) 
OFFSET CHANGED FROM 6 TO 3
OFFSET CHANGED FROM 3 TO 3
OFFSET CHANGED FROM 3 TO 3
Heartbeat CPU 0 instructions: 270000000 cycles: 137865073 heartbeat IPC: 1.918 cumulative IPC: 1.84852 (Simulation time: 0 hr 9 min 31 sec) 
OFFSET CHANGED FROM 3 TO 3
OFFSET CHANGED FROM 3 TO 7
OFFSET CHANGED FROM 7 TO 2
OFFSET CHANGED FROM 2 TO 8
OFFSET CHANGED FROM 8 TO 10
OFFSET CHANGED FROM 10 TO 5
Heartbeat CPU 0 instructions: 280000001 cycles: 143327762 heartbeat IPC: 1.8306 cumulative IPC: 1.84774 (Simulation time: 0 hr 9 min 51 sec) 
OFFSET CHANGED FROM 5 TO 11
OFFSET CHANGED FROM 11 TO 12
OFFSET CHANGED FROM 12 TO 3
Heartbeat CPU 0 instructions: 290000001 cycles: 148625149 heartbeat IPC: 1.88772 cumulative IPC: 1.84937 (Simulation time: 0 hr 10 min 10 sec) 
OFFSET CHANGED FROM 3 TO 3
OFFSET CHANGED FROM 3 TO 3
OFFSET CHANGED FROM 3 TO 2
OFFSET CHANGED FROM 2 TO 1
Heartbeat CPU 0 instructions: 300000000 cycles: 153973118 heartbeat IPC: 1.86987 cumulative IPC: 1.85018 (Simulation time: 0 hr 10 min 30 sec) 
Finished CPU 0 instructions: 250000000 cycles: 135122054 cumulative IPC: 1.85018 (Simulation time: 0 hr 10 min 30 sec) 

ChampSim completed all CPUs

Region of Interest Statistics

CPU 0 cumulative IPC: 1.85018 instructions: 250000000 cycles: 135122054
L1D TOTAL     ACCESS:   53242893  HIT:   52786189  MISS:     456704
L1D LOAD      ACCESS:   43864233  HIT:   43431191  MISS:     433042
L1D RFO       ACCESS:    9378660  HIT:    9354998  MISS:      23662
L1D PREFETCH  ACCESS:          0  HIT:          0  MISS:          0
L1D WRITEBACK ACCESS:          0  HIT:          0  MISS:          0
L1D PREFETCH  REQUESTED:          0  ISSUED:          0  USEFUL:          0  USELESS:          0
L1D AVERAGE MISS LATENCY: 16.758 cycles
L1I TOTAL     ACCESS:   40440562  HIT:   40440562  MISS:          0
L1I LOAD      ACCESS:   40440562  HIT:   40440562  MISS:          0
L1I RFO       ACCESS:          0  HIT:          0  MISS:          0
L1I PREFETCH  ACCESS:          0  HIT:          0  MISS:          0
L1I WRITEBACK ACCESS:          0  HIT:          0  MISS:          0
L1I PREFETCH  REQUESTED:          0  ISSUED:          0  USEFUL:          0  USELESS:          0
L1I AVERAGE MISS LATENCY: -nan cycles
L2C TOTAL     ACCESS:     947243  HIT:     912543  MISS:      34700
L2C LOAD      ACCESS:     433019  HIT:     423508  MISS:       9511
L2C RFO       ACCESS:      23657  HIT:      23622  MISS:         35
L2C PREFETCH  ACCESS:     409139  HIT:     383985  MISS:      25154
L2C WRITEBACK ACCESS:      81428  HIT:      81428  MISS:          0
L2C PREFETCH  REQUESTED:     411757  ISSUED:     411757  USEFUL:      20352  USELESS:       4646
L2C AVERAGE MISS LATENCY: 80.7684 cycles
LLC TOTAL     ACCESS:      40960  HIT:      22405  MISS:      18555
LLC LOAD      ACCESS:       7399  HIT:       3106  MISS:       4293
LLC RFO       ACCESS:         35  HIT:         33  MISS:          2
LLC PREFETCH  ACCESS:      27266  HIT:      13006  MISS:      14260
LLC WRITEBACK ACCESS:       6260  HIT:       6260  MISS:          0
LLC PREFETCH  REQUESTED:          0  ISSUED:          0  USEFUL:       1464  USELESS:        188
LLC AVERAGE MISS LATENCY: 101.709 cycles
Major fault: 0 Minor fault: 605
CPU 0 L1I next line prefetcher final stats
CPU 0 L2C best offset prefetcher final stats

DRAM Statistics
 CHANNEL 0
 RQ ROW_BUFFER_HIT:      13258  ROW_BUFFER_MISS:       5297
 DBUS_CONGESTED:       2767
 WQ ROW_BUFFER_HIT:          7  ROW_BUFFER_MISS:         37  FULL:          0

 AVG_CONGESTED_CYCLE: 3

CPU 0 Branch Prediction Accuracy: 96.1624% MPKI: 2.24635 Average ROB Occupancy at Mispredict: 36.4412

Branch types
NOT_BRANCH: 235366014 94.1464%
BRANCH_DIRECT_JUMP: 834382 0.333753%
BRANCH_INDIRECT: 0 0%
BRANCH_CONDITIONAL: 13798972 5.51959%
BRANCH_DIRECT_CALL: 264 0.0001056%
BRANCH_INDIRECT_CALL: 0 0%
BRANCH_RETURN: 264 0.0001056%
BRANCH_OTHER: 0 0%

