
*** ChampSim Multicore Out-of-Order Simulator ***

Warmup Instructions: 50000000
Simulation Instructions: 250000000
Number of CPUs: 1
LLC sets: 2048
LLC ways: 16
Off-chip DRAM Size: 4096 MB Channels: 1 Width: 64-bit Data Rate: 3200 MT/s

CPU 0 runs /home/wezelis2/ECE511_Project/ChampSim/dpc3_traces/625.x264_s-20B.champsimtrace.xz
CPU 0 Bimodal branch predictor
CPU 0 L1I next line prefetcher
INIT BEST RECENT REQUEST TABLE MODULE
INIT DELAY QUEUE MODULE
INIT PREFETCH THROTTLE MODULE
INIT OFFSET SCORE MODULE
INIT BEST OFFSET PREFETCHER
OFFSET CHANGED FROM 1 TO 1
OFFSET CHANGED FROM 1 TO 1
OFFSET CHANGED FROM 1 TO 11
OFFSET CHANGED FROM 11 TO 1
OFFSET CHANGED FROM 1 TO 1
OFFSET CHANGED FROM 1 TO 1
OFFSET CHANGED FROM 1 TO 1
OFFSET CHANGED FROM 1 TO 1
OFFSET CHANGED FROM 1 TO 1
OFFSET CHANGED FROM 1 TO 1
OFFSET CHANGED FROM 1 TO 1
OFFSET CHANGED FROM 1 TO 1
OFFSET CHANGED FROM 1 TO 1
OFFSET CHANGED FROM 1 TO 1
OFFSET CHANGED FROM 1 TO 1
OFFSET CHANGED FROM 1 TO 2
Heartbeat CPU 0 instructions: 10000002 cycles: 3226653 heartbeat IPC: 3.09919 cumulative IPC: 3.09919 (Simulation time: 0 hr 0 min 24 sec) 
OFFSET CHANGED FROM 2 TO 1
CHANGING MSHR THRESHOLD FROM 28 TO MIN 2
CHANGING MSHR THRESHOLD FROM 2 TO 3
CHANGING MSHR THRESHOLD FROM 3 TO 5
CHANGING MSHR THRESHOLD FROM 5 TO 6
CHANGING MSHR THRESHOLD FROM 6 TO 8
CHANGING MSHR THRESHOLD FROM 8 TO 10
CHANGING MSHR THRESHOLD FROM 10 TO 11
CHANGING MSHR THRESHOLD FROM 11 TO 13
CHANGING MSHR THRESHOLD FROM 13 TO 15
CHANGING MSHR THRESHOLD FROM 15 TO 16
CHANGING MSHR THRESHOLD FROM 16 TO 18
CHANGING MSHR THRESHOLD FROM 18 TO 19
CHANGING MSHR THRESHOLD FROM 19 TO 21
CHANGING MSHR THRESHOLD FROM 21 TO 23
CHANGING MSHR THRESHOLD FROM 23 TO 24
CHANGING MSHR THRESHOLD FROM 24 TO 26
CHANGING MSHR THRESHOLD FROM 26 TO 28
OFFSET CHANGED FROM 1 TO 1
CHANGING MSHR THRESHOLD FROM 28 TO 26
CHANGING MSHR THRESHOLD FROM 26 TO 24
CHANGING MSHR THRESHOLD FROM 24 TO 26
CHANGING MSHR THRESHOLD FROM 26 TO 28
OFFSET CHANGED FROM 1 TO 1
CHANGING MSHR THRESHOLD FROM 28 TO 26
CHANGING MSHR THRESHOLD FROM 26 TO 24
CHANGING MSHR THRESHOLD FROM 24 TO 23
CHANGING MSHR THRESHOLD FROM 23 TO 21
CHANGING MSHR THRESHOLD FROM 21 TO 19
CHANGING MSHR THRESHOLD FROM 19 TO 18
CHANGING MSHR THRESHOLD FROM 18 TO 16
CHANGING MSHR THRESHOLD FROM 16 TO 15
CHANGING MSHR THRESHOLD FROM 15 TO 13
CHANGING MSHR THRESHOLD FROM 13 TO 11
CHANGING MSHR THRESHOLD FROM 11 TO 10
CHANGING MSHR THRESHOLD FROM 10 TO 8
CHANGING MSHR THRESHOLD FROM 8 TO 6
CHANGING MSHR THRESHOLD FROM 6 TO 5
CHANGING MSHR THRESHOLD FROM 5 TO 3
CHANGING MSHR THRESHOLD FROM 3 TO 2
CHANGING MSHR THRESHOLD FROM 2 TO 3
CHANGING MSHR THRESHOLD FROM 3 TO 5
CHANGING MSHR THRESHOLD FROM 5 TO 6
CHANGING MSHR THRESHOLD FROM 6 TO 8
CHANGING MSHR THRESHOLD FROM 8 TO 10
CHANGING MSHR THRESHOLD FROM 10 TO 11
CHANGING MSHR THRESHOLD FROM 11 TO 13
CHANGING MSHR THRESHOLD FROM 13 TO 15
CHANGING MSHR THRESHOLD FROM 15 TO 16
CHANGING MSHR THRESHOLD FROM 16 TO 18
CHANGING MSHR THRESHOLD FROM 18 TO 19
CHANGING MSHR THRESHOLD FROM 19 TO 21
CHANGING MSHR THRESHOLD FROM 21 TO 23
CHANGING MSHR THRESHOLD FROM 23 TO 24
CHANGING MSHR THRESHOLD FROM 24 TO 26
CHANGING MSHR THRESHOLD FROM 26 TO 28
OFFSET CHANGED FROM 1 TO 1
CHANGING MSHR THRESHOLD FROM 28 TO 26
CHANGING MSHR THRESHOLD FROM 26 TO 24
CHANGING MSHR THRESHOLD FROM 24 TO 23
CHANGING MSHR THRESHOLD FROM 23 TO 21
CHANGING MSHR THRESHOLD FROM 21 TO 19
CHANGING MSHR THRESHOLD FROM 19 TO 18
CHANGING MSHR THRESHOLD FROM 18 TO 16
CHANGING MSHR THRESHOLD FROM 16 TO 15
CHANGING MSHR THRESHOLD FROM 15 TO 13
CHANGING MSHR THRESHOLD FROM 13 TO 11
CHANGING MSHR THRESHOLD FROM 11 TO 10
CHANGING MSHR THRESHOLD FROM 10 TO 8
CHANGING MSHR THRESHOLD FROM 8 TO 6
CHANGING MSHR THRESHOLD FROM 6 TO 5
CHANGING MSHR THRESHOLD FROM 5 TO 3
CHANGING MSHR THRESHOLD FROM 3 TO 2
CHANGING MSHR THRESHOLD FROM 2 TO 3
CHANGING MSHR THRESHOLD FROM 3 TO 5
CHANGING MSHR THRESHOLD FROM 5 TO 6
CHANGING MSHR THRESHOLD FROM 6 TO 8
CHANGING MSHR THRESHOLD FROM 8 TO 10
CHANGING MSHR THRESHOLD FROM 10 TO 11
CHANGING MSHR THRESHOLD FROM 11 TO 13
CHANGING MSHR THRESHOLD FROM 13 TO 15
CHANGING MSHR THRESHOLD FROM 15 TO 16
CHANGING MSHR THRESHOLD FROM 16 TO 18
CHANGING MSHR THRESHOLD FROM 18 TO 19
CHANGING MSHR THRESHOLD FROM 19 TO 21
CHANGING MSHR THRESHOLD FROM 21 TO 23
CHANGING MSHR THRESHOLD FROM 23 TO 24
CHANGING MSHR THRESHOLD FROM 24 TO 26
CHANGING MSHR THRESHOLD FROM 26 TO 28
OFFSET CHANGED FROM 1 TO 1
CHANGING MSHR THRESHOLD FROM 28 TO 26
CHANGING MSHR THRESHOLD FROM 26 TO 24
CHANGING MSHR THRESHOLD FROM 24 TO 23
CHANGING MSHR THRESHOLD FROM 23 TO 21
CHANGING MSHR THRESHOLD FROM 21 TO 19
CHANGING MSHR THRESHOLD FROM 19 TO 18
CHANGING MSHR THRESHOLD FROM 18 TO 16
CHANGING MSHR THRESHOLD FROM 16 TO 15
CHANGING MSHR THRESHOLD FROM 15 TO 13
CHANGING MSHR THRESHOLD FROM 13 TO 11
CHANGING MSHR THRESHOLD FROM 11 TO 10
CHANGING MSHR THRESHOLD FROM 10 TO 8
CHANGING MSHR THRESHOLD FROM 8 TO 6
CHANGING MSHR THRESHOLD FROM 6 TO 5
CHANGING MSHR THRESHOLD FROM 5 TO 3
CHANGING MSHR THRESHOLD FROM 3 TO 2
CHANGING MSHR THRESHOLD FROM 2 TO 3
CHANGING MSHR THRESHOLD FROM 3 TO 5
CHANGING MSHR THRESHOLD FROM 5 TO 6
CHANGING MSHR THRESHOLD FROM 6 TO 8
CHANGING MSHR THRESHOLD FROM 8 TO 10
CHANGING MSHR THRESHOLD FROM 10 TO 11
CHANGING MSHR THRESHOLD FROM 11 TO 13
CHANGING MSHR THRESHOLD FROM 13 TO 15
CHANGING MSHR THRESHOLD FROM 15 TO 16
CHANGING MSHR THRESHOLD FROM 16 TO 18
CHANGING MSHR THRESHOLD FROM 18 TO 19
CHANGING MSHR THRESHOLD FROM 19 TO 21
CHANGING MSHR THRESHOLD FROM 21 TO 23
CHANGING MSHR THRESHOLD FROM 23 TO 24
CHANGING MSHR THRESHOLD FROM 24 TO 26
CHANGING MSHR THRESHOLD FROM 26 TO 28
CHANGING MSHR THRESHOLD FROM 28 TO 26
CHANGING MSHR THRESHOLD FROM 26 TO 24
CHANGING MSHR THRESHOLD FROM 24 TO 23
CHANGING MSHR THRESHOLD FROM 23 TO 21
CHANGING MSHR THRESHOLD FROM 21 TO 19
CHANGING MSHR THRESHOLD FROM 19 TO 18
CHANGING MSHR THRESHOLD FROM 18 TO 16
CHANGING MSHR THRESHOLD FROM 16 TO 15
CHANGING MSHR THRESHOLD FROM 15 TO 13
CHANGING MSHR THRESHOLD FROM 13 TO 11
CHANGING MSHR THRESHOLD FROM 11 TO 10
CHANGING MSHR THRESHOLD FROM 10 TO 8
CHANGING MSHR THRESHOLD FROM 8 TO 6
CHANGING MSHR THRESHOLD FROM 6 TO 5
OFFSET CHANGED FROM 1 TO 1
CHANGING MSHR THRESHOLD FROM 5 TO 6
CHANGING MSHR THRESHOLD FROM 6 TO 8
CHANGING MSHR THRESHOLD FROM 8 TO 10
CHANGING MSHR THRESHOLD FROM 10 TO 11
CHANGING MSHR THRESHOLD FROM 11 TO 13
CHANGING MSHR THRESHOLD FROM 13 TO 15
CHANGING MSHR THRESHOLD FROM 15 TO 16
CHANGING MSHR THRESHOLD FROM 16 TO 18
CHANGING MSHR THRESHOLD FROM 18 TO 19
CHANGING MSHR THRESHOLD FROM 19 TO 21
CHANGING MSHR THRESHOLD FROM 21 TO 23
CHANGING MSHR THRESHOLD FROM 23 TO 24
CHANGING MSHR THRESHOLD FROM 24 TO 26
CHANGING MSHR THRESHOLD FROM 26 TO 28
CHANGING MSHR THRESHOLD FROM 28 TO 26
CHANGING MSHR THRESHOLD FROM 26 TO 24
CHANGING MSHR THRESHOLD FROM 24 TO 23
CHANGING MSHR THRESHOLD FROM 23 TO 21
CHANGING MSHR THRESHOLD FROM 21 TO 19
CHANGING MSHR THRESHOLD FROM 19 TO 18
CHANGING MSHR THRESHOLD FROM 18 TO 16
CHANGING MSHR THRESHOLD FROM 16 TO 15
CHANGING MSHR THRESHOLD FROM 15 TO 13
CHANGING MSHR THRESHOLD FROM 13 TO 11
CHANGING MSHR THRESHOLD FROM 11 TO 10
CHANGING MSHR THRESHOLD FROM 10 TO 8
CHANGING MSHR THRESHOLD FROM 8 TO 6
CHANGING MSHR THRESHOLD FROM 6 TO 5
CHANGING MSHR THRESHOLD FROM 5 TO 3
CHANGING MSHR THRESHOLD FROM 3 TO 2
CHANGING MSHR THRESHOLD FROM 2 TO 3
CHANGING MSHR THRESHOLD FROM 3 TO 5
CHANGING MSHR THRESHOLD FROM 5 TO 6
CHANGING MSHR THRESHOLD FROM 6 TO 8
CHANGING MSHR THRESHOLD FROM 8 TO 10
CHANGING MSHR THRESHOLD FROM 10 TO 11
CHANGING MSHR THRESHOLD FROM 11 TO 13
CHANGING MSHR THRESHOLD FROM 13 TO 15
CHANGING MSHR THRESHOLD FROM 15 TO 16
CHANGING MSHR THRESHOLD FROM 16 TO 18
CHANGING MSHR THRESHOLD FROM 18 TO 19
CHANGING MSHR THRESHOLD FROM 19 TO 21
CHANGING MSHR THRESHOLD FROM 21 TO 23
CHANGING MSHR THRESHOLD FROM 23 TO 24
CHANGING MSHR THRESHOLD FROM 24 TO 26
CHANGING MSHR THRESHOLD FROM 26 TO 28
OFFSET CHANGED FROM 1 TO 1
CHANGING MSHR THRESHOLD FROM 28 TO 26
CHANGING MSHR THRESHOLD FROM 26 TO 24
CHANGING MSHR THRESHOLD FROM 24 TO 23
CHANGING MSHR THRESHOLD FROM 23 TO 21
CHANGING MSHR THRESHOLD FROM 21 TO 19
CHANGING MSHR THRESHOLD FROM 19 TO 18
CHANGING MSHR THRESHOLD FROM 18 TO 16
CHANGING MSHR THRESHOLD FROM 16 TO 15
CHANGING MSHR THRESHOLD FROM 15 TO 13
CHANGING MSHR THRESHOLD FROM 13 TO 11
CHANGING MSHR THRESHOLD FROM 11 TO 10
CHANGING MSHR THRESHOLD FROM 10 TO 8
CHANGING MSHR THRESHOLD FROM 8 TO 6
CHANGING MSHR THRESHOLD FROM 6 TO 5
CHANGING MSHR THRESHOLD FROM 5 TO 3
CHANGING MSHR THRESHOLD FROM 3 TO 2
NO PREFETCH REQUEST BECAUSE PREFETCH SCORE 13 IS NOT GREATER THAN 20 (MSHR OCC = 2)
CHANGING MSHR THRESHOLD FROM 2 TO 3
CHANGING MSHR THRESHOLD FROM 3 TO 5
CHANGING MSHR THRESHOLD FROM 5 TO 6
CHANGING MSHR THRESHOLD FROM 6 TO 8
CHANGING MSHR THRESHOLD FROM 8 TO 10
CHANGING MSHR THRESHOLD FROM 10 TO 11
CHANGING MSHR THRESHOLD FROM 11 TO 13
CHANGING MSHR THRESHOLD FROM 13 TO 15
CHANGING MSHR THRESHOLD FROM 15 TO 16
CHANGING MSHR THRESHOLD FROM 16 TO 18
CHANGING MSHR THRESHOLD FROM 18 TO 19
CHANGING MSHR THRESHOLD FROM 19 TO 21
CHANGING MSHR THRESHOLD FROM 21 TO 23
CHANGING MSHR THRESHOLD FROM 23 TO 24
CHANGING MSHR THRESHOLD FROM 24 TO 26
CHANGING MSHR THRESHOLD FROM 26 TO 28
CHANGING MSHR THRESHOLD FROM 28 TO 26
CHANGING MSHR THRESHOLD FROM 26 TO 24
CHANGING MSHR THRESHOLD FROM 24 TO 23
CHANGING MSHR THRESHOLD FROM 23 TO 21
CHANGING MSHR THRESHOLD FROM 21 TO 19
CHANGING MSHR THRESHOLD FROM 19 TO 18
CHANGING MSHR THRESHOLD FROM 18 TO 16
CHANGING MSHR THRESHOLD FROM 16 TO 15
CHANGING MSHR THRESHOLD FROM 15 TO 13
CHANGING MSHR THRESHOLD FROM 13 TO 11
CHANGING MSHR THRESHOLD FROM 11 TO 10
CHANGING MSHR THRESHOLD FROM 10 TO 8
CHANGING MSHR THRESHOLD FROM 8 TO 6
CHANGING MSHR THRESHOLD FROM 6 TO 5
CHANGING MSHR THRESHOLD FROM 5 TO 3
CHANGING MSHR THRESHOLD FROM 3 TO 2
CHANGING MSHR THRESHOLD FROM 2 TO 3
CHANGING MSHR THRESHOLD FROM 3 TO 5
CHANGING MSHR THRESHOLD FROM 5 TO 6
CHANGING MSHR THRESHOLD FROM 6 TO 8
CHANGING MSHR THRESHOLD FROM 8 TO 10
CHANGING MSHR THRESHOLD FROM 10 TO 11
CHANGING MSHR THRESHOLD FROM 11 TO 13
CHANGING MSHR THRESHOLD FROM 13 TO 15
CHANGING MSHR THRESHOLD FROM 15 TO 16
CHANGING MSHR THRESHOLD FROM 16 TO 18
CHANGING MSHR THRESHOLD FROM 18 TO 19
CHANGING MSHR THRESHOLD FROM 19 TO 21
CHANGING MSHR THRESHOLD FROM 21 TO 23
CHANGING MSHR THRESHOLD FROM 23 TO 24
CHANGING MSHR THRESHOLD FROM 24 TO 26
CHANGING MSHR THRESHOLD FROM 26 TO 28
OFFSET CHANGED FROM 1 TO 1
OFFSET CHANGED FROM 1 TO -1
CHANGING MSHR THRESHOLD FROM 28 TO 26
CHANGING MSHR THRESHOLD FROM 26 TO 24
CHANGING MSHR THRESHOLD FROM 24 TO 23
CHANGING MSHR THRESHOLD FROM 23 TO 21
CHANGING MSHR THRESHOLD FROM 21 TO 19
CHANGING MSHR THRESHOLD FROM 19 TO 18
CHANGING MSHR THRESHOLD FROM 18 TO 16
CHANGING MSHR THRESHOLD FROM 16 TO 15
CHANGING MSHR THRESHOLD FROM 15 TO 13
CHANGING MSHR THRESHOLD FROM 13 TO 11
CHANGING MSHR THRESHOLD FROM 11 TO 10
CHANGING MSHR THRESHOLD FROM 10 TO 8
CHANGING MSHR THRESHOLD FROM 8 TO 6
CHANGING MSHR THRESHOLD FROM 6 TO 5
CHANGING MSHR THRESHOLD FROM 5 TO 6
CHANGING MSHR THRESHOLD FROM 6 TO 8
CHANGING MSHR THRESHOLD FROM 8 TO 10
CHANGING MSHR THRESHOLD FROM 10 TO 11
CHANGING MSHR THRESHOLD FROM 11 TO 13
CHANGING MSHR THRESHOLD FROM 13 TO 15
CHANGING MSHR THRESHOLD FROM 15 TO 16
CHANGING MSHR THRESHOLD FROM 16 TO 18
CHANGING MSHR THRESHOLD FROM 18 TO 19
CHANGING MSHR THRESHOLD FROM 19 TO 21
CHANGING MSHR THRESHOLD FROM 21 TO 23
CHANGING MSHR THRESHOLD FROM 23 TO 24
CHANGING MSHR THRESHOLD FROM 24 TO 26
CHANGING MSHR THRESHOLD FROM 26 TO 28
OFFSET CHANGED FROM -1 TO 1
Heartbeat CPU 0 instructions: 20000002 cycles: 6562725 heartbeat IPC: 2.99754 cumulative IPC: 3.04751 (Simulation time: 0 hr 0 min 48 sec) 
OFFSET CHANGED FROM 1 TO 1
CHANGING MSHR THRESHOLD FROM 28 TO 26
CHANGING MSHR THRESHOLD FROM 26 TO 24
CHANGING MSHR THRESHOLD FROM 24 TO 23
CHANGING MSHR THRESHOLD FROM 23 TO 21
CHANGING MSHR THRESHOLD FROM 21 TO 19
CHANGING MSHR THRESHOLD FROM 19 TO 18
CHANGING MSHR THRESHOLD FROM 18 TO 16
CHANGING MSHR THRESHOLD FROM 16 TO 15
CHANGING MSHR THRESHOLD FROM 15 TO 13
CHANGING MSHR THRESHOLD FROM 13 TO 11
CHANGING MSHR THRESHOLD FROM 11 TO 10
CHANGING MSHR THRESHOLD FROM 10 TO 8
CHANGING MSHR THRESHOLD FROM 8 TO 6
CHANGING MSHR THRESHOLD FROM 6 TO 5
CHANGING MSHR THRESHOLD FROM 5 TO 3
CHANGING MSHR THRESHOLD FROM 3 TO 2
CHANGING MSHR THRESHOLD FROM 2 TO 3
CHANGING MSHR THRESHOLD FROM 3 TO 5
CHANGING MSHR THRESHOLD FROM 5 TO 6
CHANGING MSHR THRESHOLD FROM 6 TO 8
CHANGING MSHR THRESHOLD FROM 8 TO 10
CHANGING MSHR THRESHOLD FROM 10 TO 11
CHANGING MSHR THRESHOLD FROM 11 TO 13
CHANGING MSHR THRESHOLD FROM 13 TO 15
CHANGING MSHR THRESHOLD FROM 15 TO 16
CHANGING MSHR THRESHOLD FROM 16 TO 18
CHANGING MSHR THRESHOLD FROM 18 TO 19
CHANGING MSHR THRESHOLD FROM 19 TO 21
CHANGING MSHR THRESHOLD FROM 21 TO 23
CHANGING MSHR THRESHOLD FROM 23 TO 24
CHANGING MSHR THRESHOLD FROM 24 TO 26
CHANGING MSHR THRESHOLD FROM 26 TO 28
OFFSET CHANGED FROM 1 TO 1
CHANGING MSHR THRESHOLD FROM 28 TO 26
CHANGING MSHR THRESHOLD FROM 26 TO 24
CHANGING MSHR THRESHOLD FROM 24 TO 23
CHANGING MSHR THRESHOLD FROM 23 TO 21
CHANGING MSHR THRESHOLD FROM 21 TO 19
CHANGING MSHR THRESHOLD FROM 19 TO 18
CHANGING MSHR THRESHOLD FROM 18 TO 16
CHANGING MSHR THRESHOLD FROM 16 TO 15
CHANGING MSHR THRESHOLD FROM 15 TO 13
CHANGING MSHR THRESHOLD FROM 13 TO 11
CHANGING MSHR THRESHOLD FROM 11 TO 10
CHANGING MSHR THRESHOLD FROM 10 TO 8
CHANGING MSHR THRESHOLD FROM 8 TO 6
CHANGING MSHR THRESHOLD FROM 6 TO 5
CHANGING MSHR THRESHOLD FROM 5 TO 3
CHANGING MSHR THRESHOLD FROM 3 TO 2
CHANGING MSHR THRESHOLD FROM 2 TO 3
CHANGING MSHR THRESHOLD FROM 3 TO 5
CHANGING MSHR THRESHOLD FROM 5 TO 6
CHANGING MSHR THRESHOLD FROM 6 TO 8
CHANGING MSHR THRESHOLD FROM 8 TO 10
CHANGING MSHR THRESHOLD FROM 10 TO 11
CHANGING MSHR THRESHOLD FROM 11 TO 13
CHANGING MSHR THRESHOLD FROM 13 TO 15
CHANGING MSHR THRESHOLD FROM 15 TO 16
CHANGING MSHR THRESHOLD FROM 16 TO 18
CHANGING MSHR THRESHOLD FROM 18 TO 19
CHANGING MSHR THRESHOLD FROM 19 TO 21
CHANGING MSHR THRESHOLD FROM 21 TO 23
CHANGING MSHR THRESHOLD FROM 23 TO 24
CHANGING MSHR THRESHOLD FROM 24 TO 26
CHANGING MSHR THRESHOLD FROM 26 TO 28
CHANGING MSHR THRESHOLD FROM 28 TO 26
CHANGING MSHR THRESHOLD FROM 26 TO 24
CHANGING MSHR THRESHOLD FROM 24 TO 23
CHANGING MSHR THRESHOLD FROM 23 TO 21
CHANGING MSHR THRESHOLD FROM 21 TO 19
CHANGING MSHR THRESHOLD FROM 19 TO 18
CHANGING MSHR THRESHOLD FROM 18 TO 16
CHANGING MSHR THRESHOLD FROM 16 TO 15
CHANGING MSHR THRESHOLD FROM 15 TO 13
CHANGING MSHR THRESHOLD FROM 13 TO 11
CHANGING MSHR THRESHOLD FROM 11 TO 10
CHANGING MSHR THRESHOLD FROM 10 TO 8
CHANGING MSHR THRESHOLD FROM 8 TO 6
CHANGING MSHR THRESHOLD FROM 6 TO 5
CHANGING MSHR THRESHOLD FROM 5 TO 3
CHANGING MSHR THRESHOLD FROM 3 TO 2
CHANGING MSHR THRESHOLD FROM 2 TO 3
CHANGING MSHR THRESHOLD FROM 3 TO 5
CHANGING MSHR THRESHOLD FROM 5 TO 6
CHANGING MSHR THRESHOLD FROM 6 TO 8
CHANGING MSHR THRESHOLD FROM 8 TO 10
CHANGING MSHR THRESHOLD FROM 10 TO 11
CHANGING MSHR THRESHOLD FROM 11 TO 13
CHANGING MSHR THRESHOLD FROM 13 TO 15
CHANGING MSHR THRESHOLD FROM 15 TO 16
CHANGING MSHR THRESHOLD FROM 16 TO 18
OFFSET CHANGED FROM 1 TO 10
CHANGING MSHR THRESHOLD FROM 18 TO 19
CHANGING MSHR THRESHOLD FROM 19 TO 21
CHANGING MSHR THRESHOLD FROM 21 TO 23
CHANGING MSHR THRESHOLD FROM 23 TO 24
CHANGING MSHR THRESHOLD FROM 24 TO 26
CHANGING MSHR THRESHOLD FROM 26 TO 28
CHANGING MSHR THRESHOLD FROM 28 TO 26
CHANGING MSHR THRESHOLD FROM 26 TO 24
CHANGING MSHR THRESHOLD FROM 24 TO 23
CHANGING MSHR THRESHOLD FROM 23 TO 21
CHANGING MSHR THRESHOLD FROM 21 TO 19
CHANGING MSHR THRESHOLD FROM 19 TO 18
CHANGING MSHR THRESHOLD FROM 18 TO 16
CHANGING MSHR THRESHOLD FROM 16 TO 15
CHANGING MSHR THRESHOLD FROM 15 TO 13
CHANGING MSHR THRESHOLD FROM 13 TO 11
CHANGING MSHR THRESHOLD FROM 11 TO 10
CHANGING MSHR THRESHOLD FROM 10 TO 8
CHANGING MSHR THRESHOLD FROM 8 TO 6
CHANGING MSHR THRESHOLD FROM 6 TO 5
CHANGING MSHR THRESHOLD FROM 5 TO 3
CHANGING MSHR THRESHOLD FROM 3 TO 2
NO PREFETCH REQUEST BECAUSE PREFETCH SCORE 9 IS NOT GREATER THAN 20 (MSHR OCC = 2)
NO PREFETCH REQUEST BECAUSE PREFETCH SCORE 9 IS NOT GREATER THAN 20 (MSHR OCC = 2)
NO PREFETCH REQUEST BECAUSE PREFETCH SCORE 9 IS NOT GREATER THAN 20 (MSHR OCC = 2)
NO PREFETCH REQUEST BECAUSE PREFETCH SCORE 9 IS NOT GREATER THAN 20 (MSHR OCC = 2)
NO PREFETCH REQUEST BECAUSE PREFETCH SCORE 9 IS NOT GREATER THAN 20 (MSHR OCC = 2)
NO PREFETCH REQUEST BECAUSE PREFETCH SCORE 9 IS NOT GREATER THAN 20 (MSHR OCC = 2)
NO PREFETCH REQUEST BECAUSE PREFETCH SCORE 9 IS NOT GREATER THAN 20 (MSHR OCC = 2)
NO PREFETCH REQUEST BECAUSE PREFETCH SCORE 9 IS NOT GREATER THAN 20 (MSHR OCC = 2)
NO PREFETCH REQUEST BECAUSE PREFETCH SCORE 9 IS NOT GREATER THAN 20 (MSHR OCC = 2)
NO PREFETCH REQUEST BECAUSE PREFETCH SCORE 9 IS NOT GREATER THAN 20 (MSHR OCC = 2)
NO PREFETCH REQUEST BECAUSE PREFETCH SCORE 9 IS NOT GREATER THAN 20 (MSHR OCC = 2)
NO PREFETCH REQUEST BECAUSE PREFETCH SCORE 9 IS NOT GREATER THAN 20 (MSHR OCC = 2)
NO PREFETCH REQUEST BECAUSE PREFETCH SCORE 9 IS NOT GREATER THAN 20 (MSHR OCC = 2)
NO PREFETCH REQUEST BECAUSE PREFETCH SCORE 9 IS NOT GREATER THAN 20 (MSHR OCC = 2)
NO PREFETCH REQUEST BECAUSE PREFETCH SCORE 9 IS NOT GREATER THAN 20 (MSHR OCC = 2)
NO PREFETCH REQUEST BECAUSE PREFETCH SCORE 9 IS NOT GREATER THAN 20 (MSHR OCC = 2)
NO PREFETCH REQUEST BECAUSE PREFETCH SCORE 9 IS NOT GREATER THAN 20 (MSHR OCC = 2)
NO PREFETCH REQUEST BECAUSE PREFETCH SCORE 9 IS NOT GREATER THAN 20 (MSHR OCC = 2)
NO PREFETCH REQUEST BECAUSE PREFETCH SCORE 9 IS NOT GREATER THAN 20 (MSHR OCC = 2)
NO PREFETCH REQUEST BECAUSE PREFETCH SCORE 9 IS NOT GREATER THAN 20 (MSHR OCC = 2)
CHANGING MSHR THRESHOLD FROM 2 TO 3
CHANGING MSHR THRESHOLD FROM 3 TO 5
CHANGING MSHR THRESHOLD FROM 5 TO 6
CHANGING MSHR THRESHOLD FROM 6 TO 8
CHANGING MSHR THRESHOLD FROM 8 TO 10
CHANGING MSHR THRESHOLD FROM 10 TO 11
CHANGING MSHR THRESHOLD FROM 11 TO 13
CHANGING MSHR THRESHOLD FROM 13 TO 15
CHANGING MSHR THRESHOLD FROM 15 TO 16
CHANGING MSHR THRESHOLD FROM 16 TO 18
CHANGING MSHR THRESHOLD FROM 18 TO 19
CHANGING MSHR THRESHOLD FROM 19 TO 21
CHANGING MSHR THRESHOLD FROM 21 TO 23
CHANGING MSHR THRESHOLD FROM 23 TO 24
CHANGING MSHR THRESHOLD FROM 24 TO 26
CHANGING MSHR THRESHOLD FROM 26 TO 28
OFFSET CHANGED FROM 10 TO 1
CHANGING MSHR THRESHOLD FROM 28 TO 26
CHANGING MSHR THRESHOLD FROM 26 TO 24
CHANGING MSHR THRESHOLD FROM 24 TO 23
CHANGING MSHR THRESHOLD FROM 23 TO 21
CHANGING MSHR THRESHOLD FROM 21 TO 19
CHANGING MSHR THRESHOLD FROM 19 TO 18
CHANGING MSHR THRESHOLD FROM 18 TO 16
CHANGING MSHR THRESHOLD FROM 16 TO 15
CHANGING MSHR THRESHOLD FROM 15 TO 13
CHANGING MSHR THRESHOLD FROM 13 TO 11
CHANGING MSHR THRESHOLD FROM 11 TO 10
CHANGING MSHR THRESHOLD FROM 10 TO 8
CHANGING MSHR THRESHOLD FROM 8 TO 6
CHANGING MSHR THRESHOLD FROM 6 TO 5
CHANGING MSHR THRESHOLD FROM 5 TO 3
CHANGING MSHR THRESHOLD FROM 3 TO 2
NO PREFETCH REQUEST BECAUSE PREFETCH SCORE 14 IS NOT GREATER THAN 20 (MSHR OCC = 2)
CHANGING MSHR THRESHOLD FROM 2 TO 3
CHANGING MSHR THRESHOLD FROM 3 TO 5
CHANGING MSHR THRESHOLD FROM 5 TO 6
CHANGING MSHR THRESHOLD FROM 6 TO 8
CHANGING MSHR THRESHOLD FROM 8 TO 10
CHANGING MSHR THRESHOLD FROM 10 TO 11
CHANGING MSHR THRESHOLD FROM 11 TO 13
CHANGING MSHR THRESHOLD FROM 13 TO 15
CHANGING MSHR THRESHOLD FROM 15 TO 16
CHANGING MSHR THRESHOLD FROM 16 TO 18
CHANGING MSHR THRESHOLD FROM 18 TO 19
CHANGING MSHR THRESHOLD FROM 19 TO 21
CHANGING MSHR THRESHOLD FROM 21 TO 23
CHANGING MSHR THRESHOLD FROM 23 TO 24
CHANGING MSHR THRESHOLD FROM 24 TO 26
CHANGING MSHR THRESHOLD FROM 26 TO 28
OFFSET CHANGED FROM 1 TO 1
CHANGING MSHR THRESHOLD FROM 28 TO 26
CHANGING MSHR THRESHOLD FROM 26 TO 24
CHANGING MSHR THRESHOLD FROM 24 TO 23
CHANGING MSHR THRESHOLD FROM 23 TO 21
CHANGING MSHR THRESHOLD FROM 21 TO 19
CHANGING MSHR THRESHOLD FROM 19 TO 18
CHANGING MSHR THRESHOLD FROM 18 TO 16
CHANGING MSHR THRESHOLD FROM 16 TO 15
CHANGING MSHR THRESHOLD FROM 15 TO 13
CHANGING MSHR THRESHOLD FROM 13 TO 11
CHANGING MSHR THRESHOLD FROM 11 TO 10
CHANGING MSHR THRESHOLD FROM 10 TO 8
CHANGING MSHR THRESHOLD FROM 8 TO 6
CHANGING MSHR THRESHOLD FROM 6 TO 5
CHANGING MSHR THRESHOLD FROM 5 TO 3
CHANGING MSHR THRESHOLD FROM 3 TO 2
CHANGING MSHR THRESHOLD FROM 2 TO 3
CHANGING MSHR THRESHOLD FROM 3 TO 5
CHANGING MSHR THRESHOLD FROM 5 TO 6
CHANGING MSHR THRESHOLD FROM 6 TO 8
CHANGING MSHR THRESHOLD FROM 8 TO 10
CHANGING MSHR THRESHOLD FROM 10 TO 11
CHANGING MSHR THRESHOLD FROM 11 TO 13
CHANGING MSHR THRESHOLD FROM 13 TO 15
CHANGING MSHR THRESHOLD FROM 15 TO 16
CHANGING MSHR THRESHOLD FROM 16 TO 18
CHANGING MSHR THRESHOLD FROM 18 TO 19
CHANGING MSHR THRESHOLD FROM 19 TO 21
CHANGING MSHR THRESHOLD FROM 21 TO 23
CHANGING MSHR THRESHOLD FROM 23 TO 24
CHANGING MSHR THRESHOLD FROM 24 TO 26
CHANGING MSHR THRESHOLD FROM 26 TO 28
CHANGING MSHR THRESHOLD FROM 28 TO 26
CHANGING MSHR THRESHOLD FROM 26 TO 24
CHANGING MSHR THRESHOLD FROM 24 TO 23
CHANGING MSHR THRESHOLD FROM 23 TO 21
CHANGING MSHR THRESHOLD FROM 21 TO 19
CHANGING MSHR THRESHOLD FROM 19 TO 18
CHANGING MSHR THRESHOLD FROM 18 TO 16
CHANGING MSHR THRESHOLD FROM 16 TO 15
CHANGING MSHR THRESHOLD FROM 15 TO 13
CHANGING MSHR THRESHOLD FROM 13 TO 11
CHANGING MSHR THRESHOLD FROM 11 TO 10
CHANGING MSHR THRESHOLD FROM 10 TO 8
CHANGING MSHR THRESHOLD FROM 8 TO 6
CHANGING MSHR THRESHOLD FROM 6 TO 5
CHANGING MSHR THRESHOLD FROM 5 TO 3
CHANGING MSHR THRESHOLD FROM 3 TO 2
CHANGING MSHR THRESHOLD FROM 2 TO 3
CHANGING MSHR THRESHOLD FROM 3 TO 5
CHANGING MSHR THRESHOLD FROM 5 TO 6
CHANGING MSHR THRESHOLD FROM 6 TO 8
CHANGING MSHR THRESHOLD FROM 8 TO 10
CHANGING MSHR THRESHOLD FROM 10 TO 11
CHANGING MSHR THRESHOLD FROM 11 TO 13
CHANGING MSHR THRESHOLD FROM 13 TO 15
CHANGING MSHR THRESHOLD FROM 15 TO 16
CHANGING MSHR THRESHOLD FROM 16 TO 18
CHANGING MSHR THRESHOLD FROM 18 TO 19
CHANGING MSHR THRESHOLD FROM 19 TO 21
CHANGING MSHR THRESHOLD FROM 21 TO 23
CHANGING MSHR THRESHOLD FROM 23 TO 24
CHANGING MSHR THRESHOLD FROM 24 TO 26
CHANGING MSHR THRESHOLD FROM 26 TO 28
CHANGING MSHR THRESHOLD FROM 28 TO 26
CHANGING MSHR THRESHOLD FROM 26 TO 24
CHANGING MSHR THRESHOLD FROM 24 TO 23
CHANGING MSHR THRESHOLD FROM 23 TO 21
CHANGING MSHR THRESHOLD FROM 21 TO 19
CHANGING MSHR THRESHOLD FROM 19 TO 18
CHANGING MSHR THRESHOLD FROM 18 TO 16
CHANGING MSHR THRESHOLD FROM 16 TO 15
CHANGING MSHR THRESHOLD FROM 15 TO 13
CHANGING MSHR THRESHOLD FROM 13 TO 11
CHANGING MSHR THRESHOLD FROM 11 TO 10
CHANGING MSHR THRESHOLD FROM 10 TO 8
CHANGING MSHR THRESHOLD FROM 8 TO 6
CHANGING MSHR THRESHOLD FROM 6 TO 5
CHANGING MSHR THRESHOLD FROM 5 TO 3
CHANGING MSHR THRESHOLD FROM 3 TO 2
CHANGING MSHR THRESHOLD FROM 2 TO 3
CHANGING MSHR THRESHOLD FROM 3 TO 5
CHANGING MSHR THRESHOLD FROM 5 TO 6
CHANGING MSHR THRESHOLD FROM 6 TO 8
CHANGING MSHR THRESHOLD FROM 8 TO 10
CHANGING MSHR THRESHOLD FROM 10 TO 11
CHANGING MSHR THRESHOLD FROM 11 TO 13
CHANGING MSHR THRESHOLD FROM 13 TO 15
CHANGING MSHR THRESHOLD FROM 15 TO 16
CHANGING MSHR THRESHOLD FROM 16 TO 18
CHANGING MSHR THRESHOLD FROM 18 TO 19
CHANGING MSHR THRESHOLD FROM 19 TO 21
CHANGING MSHR THRESHOLD FROM 21 TO 23
CHANGING MSHR THRESHOLD FROM 23 TO 24
CHANGING MSHR THRESHOLD FROM 24 TO 26
CHANGING MSHR THRESHOLD FROM 26 TO 28
OFFSET CHANGED FROM 1 TO 10
CHANGING MSHR THRESHOLD FROM 28 TO 26
CHANGING MSHR THRESHOLD FROM 26 TO 24
CHANGING MSHR THRESHOLD FROM 24 TO 23
CHANGING MSHR THRESHOLD FROM 23 TO 21
CHANGING MSHR THRESHOLD FROM 21 TO 23
CHANGING MSHR THRESHOLD FROM 23 TO 24
CHANGING MSHR THRESHOLD FROM 24 TO 26
CHANGING MSHR THRESHOLD FROM 26 TO 28
CHANGING MSHR THRESHOLD FROM 28 TO 26
CHANGING MSHR THRESHOLD FROM 26 TO 24
CHANGING MSHR THRESHOLD FROM 24 TO 23
CHANGING MSHR THRESHOLD FROM 23 TO 21
CHANGING MSHR THRESHOLD FROM 21 TO 19
CHANGING MSHR THRESHOLD FROM 19 TO 18
CHANGING MSHR THRESHOLD FROM 18 TO 16
CHANGING MSHR THRESHOLD FROM 16 TO 15
CHANGING MSHR THRESHOLD FROM 15 TO 13
CHANGING MSHR THRESHOLD FROM 13 TO 11
CHANGING MSHR THRESHOLD FROM 11 TO 10
CHANGING MSHR THRESHOLD FROM 10 TO 8
CHANGING MSHR THRESHOLD FROM 8 TO 6
CHANGING MSHR THRESHOLD FROM 6 TO 5
CHANGING MSHR THRESHOLD FROM 5 TO 3
CHANGING MSHR THRESHOLD FROM 3 TO 2
NO PREFETCH REQUEST BECAUSE PREFETCH SCORE 8 IS NOT GREATER THAN 20 (MSHR OCC = 2)
NO PREFETCH REQUEST BECAUSE PREFETCH SCORE 8 IS NOT GREATER THAN 20 (MSHR OCC = 2)
NO PREFETCH REQUEST BECAUSE PREFETCH SCORE 8 IS NOT GREATER THAN 20 (MSHR OCC = 2)
NO PREFETCH REQUEST BECAUSE PREFETCH SCORE 8 IS NOT GREATER THAN 20 (MSHR OCC = 2)
NO PREFETCH REQUEST BECAUSE PREFETCH SCORE 8 IS NOT GREATER THAN 20 (MSHR OCC = 2)
NO PREFETCH REQUEST BECAUSE PREFETCH SCORE 8 IS NOT GREATER THAN 20 (MSHR OCC = 2)
NO PREFETCH REQUEST BECAUSE PREFETCH SCORE 8 IS NOT GREATER THAN 20 (MSHR OCC = 2)
NO PREFETCH REQUEST BECAUSE PREFETCH SCORE 8 IS NOT GREATER THAN 20 (MSHR OCC = 2)
NO PREFETCH REQUEST BECAUSE PREFETCH SCORE 8 IS NOT GREATER THAN 20 (MSHR OCC = 2)
NO PREFETCH REQUEST BECAUSE PREFETCH SCORE 8 IS NOT GREATER THAN 20 (MSHR OCC = 2)
NO PREFETCH REQUEST BECAUSE PREFETCH SCORE 8 IS NOT GREATER THAN 20 (MSHR OCC = 2)
NO PREFETCH REQUEST BECAUSE PREFETCH SCORE 8 IS NOT GREATER THAN 20 (MSHR OCC = 2)
NO PREFETCH REQUEST BECAUSE PREFETCH SCORE 8 IS NOT GREATER THAN 20 (MSHR OCC = 2)
NO PREFETCH REQUEST BECAUSE PREFETCH SCORE 8 IS NOT GREATER THAN 20 (MSHR OCC = 2)
NO PREFETCH REQUEST BECAUSE PREFETCH SCORE 8 IS NOT GREATER THAN 20 (MSHR OCC = 2)
NO PREFETCH REQUEST BECAUSE PREFETCH SCORE 8 IS NOT GREATER THAN 20 (MSHR OCC = 2)
NO PREFETCH REQUEST BECAUSE PREFETCH SCORE 8 IS NOT GREATER THAN 20 (MSHR OCC = 2)
NO PREFETCH REQUEST BECAUSE PREFETCH SCORE 8 IS NOT GREATER THAN 20 (MSHR OCC = 2)
NO PREFETCH REQUEST BECAUSE PREFETCH SCORE 8 IS NOT GREATER THAN 20 (MSHR OCC = 2)
NO PREFETCH REQUEST BECAUSE PREFETCH SCORE 8 IS NOT GREATER THAN 20 (MSHR OCC = 2)
NO PREFETCH REQUEST BECAUSE PREFETCH SCORE 8 IS NOT GREATER THAN 20 (MSHR OCC = 2)
NO PREFETCH REQUEST BECAUSE PREFETCH SCORE 8 IS NOT GREATER THAN 20 (MSHR OCC = 2)
NO PREFETCH REQUEST BECAUSE PREFETCH SCORE 8 IS NOT GREATER THAN 20 (MSHR OCC = 2)
NO PREFETCH REQUEST BECAUSE PREFETCH SCORE 8 IS NOT GREATER THAN 20 (MSHR OCC = 2)
NO PREFETCH REQUEST BECAUSE PREFETCH SCORE 8 IS NOT GREATER THAN 20 (MSHR OCC = 2)
CHANGING MSHR THRESHOLD FROM 2 TO 3
CHANGING MSHR THRESHOLD FROM 3 TO 5
CHANGING MSHR THRESHOLD FROM 5 TO 6
CHANGING MSHR THRESHOLD FROM 6 TO 8
CHANGING MSHR THRESHOLD FROM 8 TO 10
CHANGING MSHR THRESHOLD FROM 10 TO 11
CHANGING MSHR THRESHOLD FROM 11 TO 13
CHANGING MSHR THRESHOLD FROM 13 TO 15
CHANGING MSHR THRESHOLD FROM 15 TO 16
CHANGING MSHR THRESHOLD FROM 16 TO 18
CHANGING MSHR THRESHOLD FROM 18 TO 19
CHANGING MSHR THRESHOLD FROM 19 TO 21
CHANGING MSHR THRESHOLD FROM 21 TO 23
CHANGING MSHR THRESHOLD FROM 23 TO 24
CHANGING MSHR THRESHOLD FROM 24 TO 26
CHANGING MSHR THRESHOLD FROM 26 TO 28
OFFSET CHANGED FROM 10 TO 1
CHANGING MSHR THRESHOLD FROM 28 TO 26
CHANGING MSHR THRESHOLD FROM 26 TO 24
CHANGING MSHR THRESHOLD FROM 24 TO 23
CHANGING MSHR THRESHOLD FROM 23 TO 21
CHANGING MSHR THRESHOLD FROM 21 TO 19
CHANGING MSHR THRESHOLD FROM 19 TO 18
CHANGING MSHR THRESHOLD FROM 18 TO 16
CHANGING MSHR THRESHOLD FROM 16 TO 15
CHANGING MSHR THRESHOLD FROM 15 TO 13
CHANGING MSHR THRESHOLD FROM 13 TO 11
CHANGING MSHR THRESHOLD FROM 11 TO 10
CHANGING MSHR THRESHOLD FROM 10 TO 8
CHANGING MSHR THRESHOLD FROM 8 TO 6
CHANGING MSHR THRESHOLD FROM 6 TO 5
CHANGING MSHR THRESHOLD FROM 5 TO 3
CHANGING MSHR THRESHOLD FROM 3 TO 2
CHANGING MSHR THRESHOLD FROM 2 TO 3
CHANGING MSHR THRESHOLD FROM 3 TO 5
CHANGING MSHR THRESHOLD FROM 5 TO 6
CHANGING MSHR THRESHOLD FROM 6 TO 8
CHANGING MSHR THRESHOLD FROM 8 TO 10
CHANGING MSHR THRESHOLD FROM 10 TO 11
CHANGING MSHR THRESHOLD FROM 11 TO 13
CHANGING MSHR THRESHOLD FROM 13 TO 15
CHANGING MSHR THRESHOLD FROM 15 TO 16
CHANGING MSHR THRESHOLD FROM 16 TO 18
CHANGING MSHR THRESHOLD FROM 18 TO 19
CHANGING MSHR THRESHOLD FROM 19 TO 21
CHANGING MSHR THRESHOLD FROM 21 TO 23
CHANGING MSHR THRESHOLD FROM 23 TO 24
CHANGING MSHR THRESHOLD FROM 24 TO 26
CHANGING MSHR THRESHOLD FROM 26 TO 28
OFFSET CHANGED FROM 1 TO 1
CHANGING MSHR THRESHOLD FROM 28 TO 26
CHANGING MSHR THRESHOLD FROM 26 TO 24
CHANGING MSHR THRESHOLD FROM 24 TO 23
CHANGING MSHR THRESHOLD FROM 23 TO 21
CHANGING MSHR THRESHOLD FROM 21 TO 19
CHANGING MSHR THRESHOLD FROM 19 TO 18
CHANGING MSHR THRESHOLD FROM 18 TO 16
CHANGING MSHR THRESHOLD FROM 16 TO 15
CHANGING MSHR THRESHOLD FROM 15 TO 13
CHANGING MSHR THRESHOLD FROM 13 TO 11
CHANGING MSHR THRESHOLD FROM 11 TO 10
CHANGING MSHR THRESHOLD FROM 10 TO 8
CHANGING MSHR THRESHOLD FROM 8 TO 6
CHANGING MSHR THRESHOLD FROM 6 TO 5
CHANGING MSHR THRESHOLD FROM 5 TO 6
CHANGING MSHR THRESHOLD FROM 6 TO 8
CHANGING MSHR THRESHOLD FROM 8 TO 10
CHANGING MSHR THRESHOLD FROM 10 TO 11
CHANGING MSHR THRESHOLD FROM 11 TO 13
CHANGING MSHR THRESHOLD FROM 13 TO 15
CHANGING MSHR THRESHOLD FROM 15 TO 16
CHANGING MSHR THRESHOLD FROM 16 TO 18
CHANGING MSHR THRESHOLD FROM 18 TO 19
CHANGING MSHR THRESHOLD FROM 19 TO 21
CHANGING MSHR THRESHOLD FROM 21 TO 23
CHANGING MSHR THRESHOLD FROM 23 TO 24
CHANGING MSHR THRESHOLD FROM 24 TO 26
CHANGING MSHR THRESHOLD FROM 26 TO 28
OFFSET CHANGED FROM 1 TO 11
CHANGING MSHR THRESHOLD FROM 28 TO 26
CHANGING MSHR THRESHOLD FROM 26 TO 24
CHANGING MSHR THRESHOLD FROM 24 TO 23
CHANGING MSHR THRESHOLD FROM 23 TO 21
CHANGING MSHR THRESHOLD FROM 21 TO 19
CHANGING MSHR THRESHOLD FROM 19 TO 18
CHANGING MSHR THRESHOLD FROM 18 TO 16
CHANGING MSHR THRESHOLD FROM 16 TO 15
CHANGING MSHR THRESHOLD FROM 15 TO 13
CHANGING MSHR THRESHOLD FROM 13 TO 11
CHANGING MSHR THRESHOLD FROM 11 TO 10
CHANGING MSHR THRESHOLD FROM 10 TO 8
CHANGING MSHR THRESHOLD FROM 8 TO 6
CHANGING MSHR THRESHOLD FROM 6 TO 5
CHANGING MSHR THRESHOLD FROM 5 TO 3
CHANGING MSHR THRESHOLD FROM 3 TO 2
NO PREFETCH REQUEST BECAUSE PREFETCH SCORE 11 IS NOT GREATER THAN 20 (MSHR OCC = 2)
NO PREFETCH REQUEST BECAUSE PREFETCH SCORE 11 IS NOT GREATER THAN 20 (MSHR OCC = 2)
NO PREFETCH REQUEST BECAUSE PREFETCH SCORE 11 IS NOT GREATER THAN 20 (MSHR OCC = 2)
NO PREFETCH REQUEST BECAUSE PREFETCH SCORE 11 IS NOT GREATER THAN 20 (MSHR OCC = 2)
NO PREFETCH REQUEST BECAUSE PREFETCH SCORE 11 IS NOT GREATER THAN 20 (MSHR OCC = 2)
NO PREFETCH REQUEST BECAUSE PREFETCH SCORE 11 IS NOT GREATER THAN 20 (MSHR OCC = 2)
NO PREFETCH REQUEST BECAUSE PREFETCH SCORE 11 IS NOT GREATER THAN 20 (MSHR OCC = 2)
NO PREFETCH REQUEST BECAUSE PREFETCH SCORE 11 IS NOT GREATER THAN 20 (MSHR OCC = 2)
NO PREFETCH REQUEST BECAUSE PREFETCH SCORE 11 IS NOT GREATER THAN 20 (MSHR OCC = 2)
NO PREFETCH REQUEST BECAUSE PREFETCH SCORE 11 IS NOT GREATER THAN 20 (MSHR OCC = 2)
NO PREFETCH REQUEST BECAUSE PREFETCH SCORE 11 IS NOT GREATER THAN 20 (MSHR OCC = 2)
NO PREFETCH REQUEST BECAUSE PREFETCH SCORE 11 IS NOT GREATER THAN 20 (MSHR OCC = 2)
NO PREFETCH REQUEST BECAUSE PREFETCH SCORE 11 IS NOT GREATER THAN 20 (MSHR OCC = 2)
CHANGING MSHR THRESHOLD FROM 2 TO 3
CHANGING MSHR THRESHOLD FROM 3 TO 5
CHANGING MSHR THRESHOLD FROM 5 TO 6
CHANGING MSHR THRESHOLD FROM 6 TO 8
CHANGING MSHR THRESHOLD FROM 8 TO 10
CHANGING MSHR THRESHOLD FROM 10 TO 11
CHANGING MSHR THRESHOLD FROM 11 TO 13
CHANGING MSHR THRESHOLD FROM 13 TO 15
CHANGING MSHR THRESHOLD FROM 15 TO 16
CHANGING MSHR THRESHOLD FROM 16 TO 18
CHANGING MSHR THRESHOLD FROM 18 TO 19
CHANGING MSHR THRESHOLD FROM 19 TO 21
CHANGING MSHR THRESHOLD FROM 21 TO 23
CHANGING MSHR THRESHOLD FROM 23 TO 24
CHANGING MSHR THRESHOLD FROM 24 TO 26
CHANGING MSHR THRESHOLD FROM 26 TO 28
OFFSET CHANGED FROM 11 TO 11
OFFSET CHANGED FROM 11 TO 1
Heartbeat CPU 0 instructions: 30000001 cycles: 9903606 heartbeat IPC: 2.99322 cumulative IPC: 3.0292 (Simulation time: 0 hr 1 min 12 sec) 
OFFSET CHANGED FROM 1 TO 1
CHANGING MSHR THRESHOLD FROM 28 TO 26
CHANGING MSHR THRESHOLD FROM 26 TO 24
CHANGING MSHR THRESHOLD FROM 24 TO 23
CHANGING MSHR THRESHOLD FROM 23 TO 21
CHANGING MSHR THRESHOLD FROM 21 TO 19
CHANGING MSHR THRESHOLD FROM 19 TO 18
CHANGING MSHR THRESHOLD FROM 18 TO 16
CHANGING MSHR THRESHOLD FROM 16 TO 15
CHANGING MSHR THRESHOLD FROM 15 TO 13
CHANGING MSHR THRESHOLD FROM 13 TO 11
CHANGING MSHR THRESHOLD FROM 11 TO 10
CHANGING MSHR THRESHOLD FROM 10 TO 8
CHANGING MSHR THRESHOLD FROM 8 TO 6
CHANGING MSHR THRESHOLD FROM 6 TO 5
CHANGING MSHR THRESHOLD FROM 5 TO 3
CHANGING MSHR THRESHOLD FROM 3 TO 2
NO PREFETCH REQUEST BECAUSE PREFETCH SCORE 16 IS NOT GREATER THAN 20 (MSHR OCC = 2)
CHANGING MSHR THRESHOLD FROM 2 TO 3
CHANGING MSHR THRESHOLD FROM 3 TO 5
CHANGING MSHR THRESHOLD FROM 5 TO 6
CHANGING MSHR THRESHOLD FROM 6 TO 8
CHANGING MSHR THRESHOLD FROM 8 TO 10
CHANGING MSHR THRESHOLD FROM 10 TO 11
CHANGING MSHR THRESHOLD FROM 11 TO 13
CHANGING MSHR THRESHOLD FROM 13 TO 15
CHANGING MSHR THRESHOLD FROM 15 TO 16
CHANGING MSHR THRESHOLD FROM 16 TO 18
CHANGING MSHR THRESHOLD FROM 18 TO 19
CHANGING MSHR THRESHOLD FROM 19 TO 21
CHANGING MSHR THRESHOLD FROM 21 TO 23
CHANGING MSHR THRESHOLD FROM 23 TO 24
CHANGING MSHR THRESHOLD FROM 24 TO 26
CHANGING MSHR THRESHOLD FROM 26 TO 28
OFFSET CHANGED FROM 1 TO 1
CHANGING MSHR THRESHOLD FROM 28 TO 26
CHANGING MSHR THRESHOLD FROM 26 TO 24
CHANGING MSHR THRESHOLD FROM 24 TO 23
CHANGING MSHR THRESHOLD FROM 23 TO 21
CHANGING MSHR THRESHOLD FROM 21 TO 19
CHANGING MSHR THRESHOLD FROM 19 TO 21
CHANGING MSHR THRESHOLD FROM 21 TO 23
CHANGING MSHR THRESHOLD FROM 23 TO 24
CHANGING MSHR THRESHOLD FROM 24 TO 26
CHANGING MSHR THRESHOLD FROM 26 TO 28
OFFSET CHANGED FROM 1 TO 1
CHANGING MSHR THRESHOLD FROM 28 TO 26
CHANGING MSHR THRESHOLD FROM 26 TO 24
CHANGING MSHR THRESHOLD FROM 24 TO 23
CHANGING MSHR THRESHOLD FROM 23 TO 21
CHANGING MSHR THRESHOLD FROM 21 TO 19
CHANGING MSHR THRESHOLD FROM 19 TO 18
CHANGING MSHR THRESHOLD FROM 18 TO 16
CHANGING MSHR THRESHOLD FROM 16 TO 15
CHANGING MSHR THRESHOLD FROM 15 TO 13
CHANGING MSHR THRESHOLD FROM 13 TO 11
CHANGING MSHR THRESHOLD FROM 11 TO 10
CHANGING MSHR THRESHOLD FROM 10 TO 8
CHANGING MSHR THRESHOLD FROM 8 TO 6
CHANGING MSHR THRESHOLD FROM 6 TO 5
CHANGING MSHR THRESHOLD FROM 5 TO 3
CHANGING MSHR THRESHOLD FROM 3 TO 2
CHANGING MSHR THRESHOLD FROM 2 TO 3
CHANGING MSHR THRESHOLD FROM 3 TO 5
CHANGING MSHR THRESHOLD FROM 5 TO 6
CHANGING MSHR THRESHOLD FROM 6 TO 8
CHANGING MSHR THRESHOLD FROM 8 TO 10
CHANGING MSHR THRESHOLD FROM 10 TO 11
CHANGING MSHR THRESHOLD FROM 11 TO 13
CHANGING MSHR THRESHOLD FROM 13 TO 15
CHANGING MSHR THRESHOLD FROM 15 TO 16
CHANGING MSHR THRESHOLD FROM 16 TO 18
CHANGING MSHR THRESHOLD FROM 18 TO 19
CHANGING MSHR THRESHOLD FROM 19 TO 21
CHANGING MSHR THRESHOLD FROM 21 TO 23
CHANGING MSHR THRESHOLD FROM 23 TO 24
CHANGING MSHR THRESHOLD FROM 24 TO 26
CHANGING MSHR THRESHOLD FROM 26 TO 28
CHANGING MSHR THRESHOLD FROM 28 TO 26
CHANGING MSHR THRESHOLD FROM 26 TO 24
CHANGING MSHR THRESHOLD FROM 24 TO 23
CHANGING MSHR THRESHOLD FROM 23 TO 21
CHANGING MSHR THRESHOLD FROM 21 TO 19
CHANGING MSHR THRESHOLD FROM 19 TO 18
CHANGING MSHR THRESHOLD FROM 18 TO 16
CHANGING MSHR THRESHOLD FROM 16 TO 15
CHANGING MSHR THRESHOLD FROM 15 TO 13
CHANGING MSHR THRESHOLD FROM 13 TO 11
CHANGING MSHR THRESHOLD FROM 11 TO 10
CHANGING MSHR THRESHOLD FROM 10 TO 11
CHANGING MSHR THRESHOLD FROM 11 TO 13
CHANGING MSHR THRESHOLD FROM 13 TO 15
CHANGING MSHR THRESHOLD FROM 15 TO 16
CHANGING MSHR THRESHOLD FROM 16 TO 18
CHANGING MSHR THRESHOLD FROM 18 TO 19
CHANGING MSHR THRESHOLD FROM 19 TO 21
CHANGING MSHR THRESHOLD FROM 21 TO 23
CHANGING MSHR THRESHOLD FROM 23 TO 24
CHANGING MSHR THRESHOLD FROM 24 TO 26
CHANGING MSHR THRESHOLD FROM 26 TO 28
OFFSET CHANGED FROM 1 TO 11
CHANGING MSHR THRESHOLD FROM 28 TO 26
CHANGING MSHR THRESHOLD FROM 26 TO 24
CHANGING MSHR THRESHOLD FROM 24 TO 23
CHANGING MSHR THRESHOLD FROM 23 TO 21
CHANGING MSHR THRESHOLD FROM 21 TO 19
CHANGING MSHR THRESHOLD FROM 19 TO 18
CHANGING MSHR THRESHOLD FROM 18 TO 16
CHANGING MSHR THRESHOLD FROM 16 TO 15
CHANGING MSHR THRESHOLD FROM 15 TO 13
CHANGING MSHR THRESHOLD FROM 13 TO 11
CHANGING MSHR THRESHOLD FROM 11 TO 10
CHANGING MSHR THRESHOLD FROM 10 TO 8
CHANGING MSHR THRESHOLD FROM 8 TO 6
CHANGING MSHR THRESHOLD FROM 6 TO 5
CHANGING MSHR THRESHOLD FROM 5 TO 3
CHANGING MSHR THRESHOLD FROM 3 TO 2
OFFSET CHANGED FROM 11 TO 1
CHANGING MSHR THRESHOLD FROM 2 TO 3
CHANGING MSHR THRESHOLD FROM 3 TO 5
CHANGING MSHR THRESHOLD FROM 5 TO 6
CHANGING MSHR THRESHOLD FROM 6 TO 8
CHANGING MSHR THRESHOLD FROM 8 TO 10
CHANGING MSHR THRESHOLD FROM 10 TO 11
CHANGING MSHR THRESHOLD FROM 11 TO 13
CHANGING MSHR THRESHOLD FROM 13 TO 15
CHANGING MSHR THRESHOLD FROM 15 TO 16
CHANGING MSHR THRESHOLD FROM 16 TO 18
CHANGING MSHR THRESHOLD FROM 18 TO 19
CHANGING MSHR THRESHOLD FROM 19 TO 21
CHANGING MSHR THRESHOLD FROM 21 TO 23
CHANGING MSHR THRESHOLD FROM 23 TO 24
CHANGING MSHR THRESHOLD FROM 24 TO 26
CHANGING MSHR THRESHOLD FROM 26 TO 28
CHANGING MSHR THRESHOLD FROM 28 TO 26
CHANGING MSHR THRESHOLD FROM 26 TO 24
CHANGING MSHR THRESHOLD FROM 24 TO 23
CHANGING MSHR THRESHOLD FROM 23 TO 21
CHANGING MSHR THRESHOLD FROM 21 TO 19
CHANGING MSHR THRESHOLD FROM 19 TO 18
CHANGING MSHR THRESHOLD FROM 18 TO 16
CHANGING MSHR THRESHOLD FROM 16 TO 15
CHANGING MSHR THRESHOLD FROM 15 TO 13
CHANGING MSHR THRESHOLD FROM 13 TO 11
CHANGING MSHR THRESHOLD FROM 11 TO 10
CHANGING MSHR THRESHOLD FROM 10 TO 8
CHANGING MSHR THRESHOLD FROM 8 TO 6
CHANGING MSHR THRESHOLD FROM 6 TO 5
CHANGING MSHR THRESHOLD FROM 5 TO 3
CHANGING MSHR THRESHOLD FROM 3 TO 2
CHANGING MSHR THRESHOLD FROM 2 TO 3
CHANGING MSHR THRESHOLD FROM 3 TO 5
CHANGING MSHR THRESHOLD FROM 5 TO 6
CHANGING MSHR THRESHOLD FROM 6 TO 8
CHANGING MSHR THRESHOLD FROM 8 TO 10
CHANGING MSHR THRESHOLD FROM 10 TO 11
CHANGING MSHR THRESHOLD FROM 11 TO 13
CHANGING MSHR THRESHOLD FROM 13 TO 15
CHANGING MSHR THRESHOLD FROM 15 TO 16
CHANGING MSHR THRESHOLD FROM 16 TO 18
CHANGING MSHR THRESHOLD FROM 18 TO 19
CHANGING MSHR THRESHOLD FROM 19 TO 21
CHANGING MSHR THRESHOLD FROM 21 TO 23
CHANGING MSHR THRESHOLD FROM 23 TO 24
CHANGING MSHR THRESHOLD FROM 24 TO 26
CHANGING MSHR THRESHOLD FROM 26 TO 28
OFFSET CHANGED FROM 1 TO 2
CHANGING MSHR THRESHOLD FROM 28 TO 26
CHANGING MSHR THRESHOLD FROM 26 TO 24
CHANGING MSHR THRESHOLD FROM 24 TO 23
CHANGING MSHR THRESHOLD FROM 23 TO 21
CHANGING MSHR THRESHOLD FROM 21 TO 19
CHANGING MSHR THRESHOLD FROM 19 TO 18
CHANGING MSHR THRESHOLD FROM 18 TO 16
CHANGING MSHR THRESHOLD FROM 16 TO 15
CHANGING MSHR THRESHOLD FROM 15 TO 13
CHANGING MSHR THRESHOLD FROM 13 TO 11
CHANGING MSHR THRESHOLD FROM 11 TO 10
CHANGING MSHR THRESHOLD FROM 10 TO 8
CHANGING MSHR THRESHOLD FROM 8 TO 6
CHANGING MSHR THRESHOLD FROM 6 TO 5
CHANGING MSHR THRESHOLD FROM 5 TO 3
CHANGING MSHR THRESHOLD FROM 3 TO 2
NO PREFETCH REQUEST BECAUSE PREFETCH SCORE 12 IS NOT GREATER THAN 20 (MSHR OCC = 2)
NO PREFETCH REQUEST BECAUSE PREFETCH SCORE 12 IS NOT GREATER THAN 20 (MSHR OCC = 2)
NO PREFETCH REQUEST BECAUSE PREFETCH SCORE 12 IS NOT GREATER THAN 20 (MSHR OCC = 2)
CHANGING MSHR THRESHOLD FROM 2 TO 3
CHANGING MSHR THRESHOLD FROM 3 TO 5
CHANGING MSHR THRESHOLD FROM 5 TO 6
CHANGING MSHR THRESHOLD FROM 6 TO 8
CHANGING MSHR THRESHOLD FROM 8 TO 10
CHANGING MSHR THRESHOLD FROM 10 TO 11
CHANGING MSHR THRESHOLD FROM 11 TO 13
CHANGING MSHR THRESHOLD FROM 13 TO 15
CHANGING MSHR THRESHOLD FROM 15 TO 16
CHANGING MSHR THRESHOLD FROM 16 TO 18
CHANGING MSHR THRESHOLD FROM 18 TO 19
CHANGING MSHR THRESHOLD FROM 19 TO 21
CHANGING MSHR THRESHOLD FROM 21 TO 23
CHANGING MSHR THRESHOLD FROM 23 TO 24
CHANGING MSHR THRESHOLD FROM 24 TO 26
CHANGING MSHR THRESHOLD FROM 26 TO 28
OFFSET CHANGED FROM 2 TO 10
OFFSET CHANGED FROM 10 TO 1
OFFSET CHANGED FROM 1 TO 1
CHANGING MSHR THRESHOLD FROM 28 TO 26
CHANGING MSHR THRESHOLD FROM 26 TO 24
CHANGING MSHR THRESHOLD FROM 24 TO 23
CHANGING MSHR THRESHOLD FROM 23 TO 21
CHANGING MSHR THRESHOLD FROM 21 TO 19
CHANGING MSHR THRESHOLD FROM 19 TO 18
CHANGING MSHR THRESHOLD FROM 18 TO 16
CHANGING MSHR THRESHOLD FROM 16 TO 15
CHANGING MSHR THRESHOLD FROM 15 TO 13
CHANGING MSHR THRESHOLD FROM 13 TO 11
CHANGING MSHR THRESHOLD FROM 11 TO 10
CHANGING MSHR THRESHOLD FROM 10 TO 8
CHANGING MSHR THRESHOLD FROM 8 TO 6
CHANGING MSHR THRESHOLD FROM 6 TO 5
CHANGING MSHR THRESHOLD FROM 5 TO 3
CHANGING MSHR THRESHOLD FROM 3 TO 2
CHANGING MSHR THRESHOLD FROM 2 TO 3
CHANGING MSHR THRESHOLD FROM 3 TO 5
CHANGING MSHR THRESHOLD FROM 5 TO 6
CHANGING MSHR THRESHOLD FROM 6 TO 8
CHANGING MSHR THRESHOLD FROM 8 TO 10
CHANGING MSHR THRESHOLD FROM 10 TO 11
CHANGING MSHR THRESHOLD FROM 11 TO 13
CHANGING MSHR THRESHOLD FROM 13 TO 15
CHANGING MSHR THRESHOLD FROM 15 TO 16
CHANGING MSHR THRESHOLD FROM 16 TO 18
CHANGING MSHR THRESHOLD FROM 18 TO 19
CHANGING MSHR THRESHOLD FROM 19 TO 21
CHANGING MSHR THRESHOLD FROM 21 TO 23
CHANGING MSHR THRESHOLD FROM 23 TO 24
CHANGING MSHR THRESHOLD FROM 24 TO 26
CHANGING MSHR THRESHOLD FROM 26 TO 28
OFFSET CHANGED FROM 1 TO 1
CHANGING MSHR THRESHOLD FROM 28 TO 26
CHANGING MSHR THRESHOLD FROM 26 TO 24
CHANGING MSHR THRESHOLD FROM 24 TO 23
CHANGING MSHR THRESHOLD FROM 23 TO 21
CHANGING MSHR THRESHOLD FROM 21 TO 19
CHANGING MSHR THRESHOLD FROM 19 TO 18
CHANGING MSHR THRESHOLD FROM 18 TO 16
CHANGING MSHR THRESHOLD FROM 16 TO 15
CHANGING MSHR THRESHOLD FROM 15 TO 13
CHANGING MSHR THRESHOLD FROM 13 TO 11
CHANGING MSHR THRESHOLD FROM 11 TO 10
CHANGING MSHR THRESHOLD FROM 10 TO 8
CHANGING MSHR THRESHOLD FROM 8 TO 6
CHANGING MSHR THRESHOLD FROM 6 TO 5
CHANGING MSHR THRESHOLD FROM 5 TO 3
CHANGING MSHR THRESHOLD FROM 3 TO 2
CHANGING MSHR THRESHOLD FROM 2 TO 3
CHANGING MSHR THRESHOLD FROM 3 TO 5
CHANGING MSHR THRESHOLD FROM 5 TO 6
CHANGING MSHR THRESHOLD FROM 6 TO 8
CHANGING MSHR THRESHOLD FROM 8 TO 10
CHANGING MSHR THRESHOLD FROM 10 TO 11
CHANGING MSHR THRESHOLD FROM 11 TO 13
CHANGING MSHR THRESHOLD FROM 13 TO 15
CHANGING MSHR THRESHOLD FROM 15 TO 16
CHANGING MSHR THRESHOLD FROM 16 TO 18
CHANGING MSHR THRESHOLD FROM 18 TO 19
CHANGING MSHR THRESHOLD FROM 19 TO 21
CHANGING MSHR THRESHOLD FROM 21 TO 23
CHANGING MSHR THRESHOLD FROM 23 TO 24
CHANGING MSHR THRESHOLD FROM 24 TO 26
CHANGING MSHR THRESHOLD FROM 26 TO 28
Heartbeat CPU 0 instructions: 40000001 cycles: 13244450 heartbeat IPC: 2.99326 cumulative IPC: 3.02013 (Simulation time: 0 hr 1 min 35 sec) 
OFFSET CHANGED FROM 1 TO 1
CHANGING MSHR THRESHOLD FROM 28 TO 26
CHANGING MSHR THRESHOLD FROM 26 TO 24
CHANGING MSHR THRESHOLD FROM 24 TO 23
CHANGING MSHR THRESHOLD FROM 23 TO 21
CHANGING MSHR THRESHOLD FROM 21 TO 19
CHANGING MSHR THRESHOLD FROM 19 TO 18
CHANGING MSHR THRESHOLD FROM 18 TO 16
CHANGING MSHR THRESHOLD FROM 16 TO 15
CHANGING MSHR THRESHOLD FROM 15 TO 13
CHANGING MSHR THRESHOLD FROM 13 TO 11
CHANGING MSHR THRESHOLD FROM 11 TO 13
CHANGING MSHR THRESHOLD FROM 13 TO 15
CHANGING MSHR THRESHOLD FROM 15 TO 16
CHANGING MSHR THRESHOLD FROM 16 TO 18
CHANGING MSHR THRESHOLD FROM 18 TO 19
CHANGING MSHR THRESHOLD FROM 19 TO 21
CHANGING MSHR THRESHOLD FROM 21 TO 23
OFFSET CHANGED FROM 1 TO 1
CHANGING MSHR THRESHOLD FROM 23 TO 24
CHANGING MSHR THRESHOLD FROM 24 TO 26
CHANGING MSHR THRESHOLD FROM 26 TO 28
CHANGING MSHR THRESHOLD FROM 28 TO 26
CHANGING MSHR THRESHOLD FROM 26 TO 24
CHANGING MSHR THRESHOLD FROM 24 TO 23
CHANGING MSHR THRESHOLD FROM 23 TO 21
CHANGING MSHR THRESHOLD FROM 21 TO 19
CHANGING MSHR THRESHOLD FROM 19 TO 18
CHANGING MSHR THRESHOLD FROM 18 TO 16
CHANGING MSHR THRESHOLD FROM 16 TO 15
CHANGING MSHR THRESHOLD FROM 15 TO 13
CHANGING MSHR THRESHOLD FROM 13 TO 11
CHANGING MSHR THRESHOLD FROM 11 TO 10
CHANGING MSHR THRESHOLD FROM 10 TO 8
CHANGING MSHR THRESHOLD FROM 8 TO 6
CHANGING MSHR THRESHOLD FROM 6 TO 5
CHANGING MSHR THRESHOLD FROM 5 TO 3
CHANGING MSHR THRESHOLD FROM 3 TO 2
CHANGING MSHR THRESHOLD FROM 2 TO 3
CHANGING MSHR THRESHOLD FROM 3 TO 5
CHANGING MSHR THRESHOLD FROM 5 TO 6
CHANGING MSHR THRESHOLD FROM 6 TO 8
CHANGING MSHR THRESHOLD FROM 8 TO 10
CHANGING MSHR THRESHOLD FROM 10 TO 11
CHANGING MSHR THRESHOLD FROM 11 TO 13
CHANGING MSHR THRESHOLD FROM 13 TO 15
CHANGING MSHR THRESHOLD FROM 15 TO 16
CHANGING MSHR THRESHOLD FROM 16 TO 18
CHANGING MSHR THRESHOLD FROM 18 TO 19
CHANGING MSHR THRESHOLD FROM 19 TO 21
CHANGING MSHR THRESHOLD FROM 21 TO 23
CHANGING MSHR THRESHOLD FROM 23 TO 24
CHANGING MSHR THRESHOLD FROM 24 TO 26
CHANGING MSHR THRESHOLD FROM 26 TO 28
CHANGING MSHR THRESHOLD FROM 28 TO 26
CHANGING MSHR THRESHOLD FROM 26 TO 24
CHANGING MSHR THRESHOLD FROM 24 TO 23
CHANGING MSHR THRESHOLD FROM 23 TO 21
CHANGING MSHR THRESHOLD FROM 21 TO 19
CHANGING MSHR THRESHOLD FROM 19 TO 18
CHANGING MSHR THRESHOLD FROM 18 TO 16
CHANGING MSHR THRESHOLD FROM 16 TO 15
CHANGING MSHR THRESHOLD FROM 15 TO 13
CHANGING MSHR THRESHOLD FROM 13 TO 11
CHANGING MSHR THRESHOLD FROM 11 TO 10
CHANGING MSHR THRESHOLD FROM 10 TO 8
CHANGING MSHR THRESHOLD FROM 8 TO 6
CHANGING MSHR THRESHOLD FROM 6 TO 5
CHANGING MSHR THRESHOLD FROM 5 TO 3
CHANGING MSHR THRESHOLD FROM 3 TO 2
CHANGING MSHR THRESHOLD FROM 2 TO 3
CHANGING MSHR THRESHOLD FROM 3 TO 5
CHANGING MSHR THRESHOLD FROM 5 TO 6
CHANGING MSHR THRESHOLD FROM 6 TO 8
CHANGING MSHR THRESHOLD FROM 8 TO 10
CHANGING MSHR THRESHOLD FROM 10 TO 11
CHANGING MSHR THRESHOLD FROM 11 TO 13
CHANGING MSHR THRESHOLD FROM 13 TO 15
CHANGING MSHR THRESHOLD FROM 15 TO 16
CHANGING MSHR THRESHOLD FROM 16 TO 18
CHANGING MSHR THRESHOLD FROM 18 TO 19
CHANGING MSHR THRESHOLD FROM 19 TO 21
CHANGING MSHR THRESHOLD FROM 21 TO 23
CHANGING MSHR THRESHOLD FROM 23 TO 24
CHANGING MSHR THRESHOLD FROM 24 TO 26
CHANGING MSHR THRESHOLD FROM 26 TO 28
OFFSET CHANGED FROM 1 TO 11
CHANGING MSHR THRESHOLD FROM 28 TO 26
CHANGING MSHR THRESHOLD FROM 26 TO 24
CHANGING MSHR THRESHOLD FROM 24 TO 23
CHANGING MSHR THRESHOLD FROM 23 TO 21
CHANGING MSHR THRESHOLD FROM 21 TO 19
CHANGING MSHR THRESHOLD FROM 19 TO 18
CHANGING MSHR THRESHOLD FROM 18 TO 16
CHANGING MSHR THRESHOLD FROM 16 TO 15
CHANGING MSHR THRESHOLD FROM 15 TO 13
CHANGING MSHR THRESHOLD FROM 13 TO 11
CHANGING MSHR THRESHOLD FROM 11 TO 10
CHANGING MSHR THRESHOLD FROM 10 TO 8
CHANGING MSHR THRESHOLD FROM 8 TO 6
CHANGING MSHR THRESHOLD FROM 6 TO 5
CHANGING MSHR THRESHOLD FROM 5 TO 3
CHANGING MSHR THRESHOLD FROM 3 TO 2
NO PREFETCH REQUEST BECAUSE PREFETCH SCORE 7 IS NOT GREATER THAN 20 (MSHR OCC = 2)
NO PREFETCH REQUEST BECAUSE PREFETCH SCORE 7 IS NOT GREATER THAN 20 (MSHR OCC = 2)
NO PREFETCH REQUEST BECAUSE PREFETCH SCORE 7 IS NOT GREATER THAN 20 (MSHR OCC = 2)
NO PREFETCH REQUEST BECAUSE PREFETCH SCORE 7 IS NOT GREATER THAN 20 (MSHR OCC = 2)
NO PREFETCH REQUEST BECAUSE PREFETCH SCORE 7 IS NOT GREATER THAN 20 (MSHR OCC = 2)
NO PREFETCH REQUEST BECAUSE PREFETCH SCORE 7 IS NOT GREATER THAN 20 (MSHR OCC = 2)
NO PREFETCH REQUEST BECAUSE PREFETCH SCORE 7 IS NOT GREATER THAN 20 (MSHR OCC = 2)
NO PREFETCH REQUEST BECAUSE PREFETCH SCORE 7 IS NOT GREATER THAN 20 (MSHR OCC = 2)
NO PREFETCH REQUEST BECAUSE PREFETCH SCORE 7 IS NOT GREATER THAN 20 (MSHR OCC = 2)
NO PREFETCH REQUEST BECAUSE PREFETCH SCORE 7 IS NOT GREATER THAN 20 (MSHR OCC = 2)
NO PREFETCH REQUEST BECAUSE PREFETCH SCORE 7 IS NOT GREATER THAN 20 (MSHR OCC = 2)
NO PREFETCH REQUEST BECAUSE PREFETCH SCORE 7 IS NOT GREATER THAN 20 (MSHR OCC = 2)
NO PREFETCH REQUEST BECAUSE PREFETCH SCORE 7 IS NOT GREATER THAN 20 (MSHR OCC = 2)
NO PREFETCH REQUEST BECAUSE PREFETCH SCORE 7 IS NOT GREATER THAN 20 (MSHR OCC = 2)
NO PREFETCH REQUEST BECAUSE PREFETCH SCORE 7 IS NOT GREATER THAN 20 (MSHR OCC = 2)
NO PREFETCH REQUEST BECAUSE PREFETCH SCORE 7 IS NOT GREATER THAN 20 (MSHR OCC = 2)
NO PREFETCH REQUEST BECAUSE PREFETCH SCORE 7 IS NOT GREATER THAN 20 (MSHR OCC = 2)
NO PREFETCH REQUEST BECAUSE PREFETCH SCORE 7 IS NOT GREATER THAN 20 (MSHR OCC = 2)
NO PREFETCH REQUEST BECAUSE PREFETCH SCORE 7 IS NOT GREATER THAN 20 (MSHR OCC = 2)
NO PREFETCH REQUEST BECAUSE PREFETCH SCORE 7 IS NOT GREATER THAN 20 (MSHR OCC = 2)
NO PREFETCH REQUEST BECAUSE PREFETCH SCORE 7 IS NOT GREATER THAN 20 (MSHR OCC = 2)
NO PREFETCH REQUEST BECAUSE PREFETCH SCORE 7 IS NOT GREATER THAN 20 (MSHR OCC = 2)
NO PREFETCH REQUEST BECAUSE PREFETCH SCORE 7 IS NOT GREATER THAN 20 (MSHR OCC = 2)
CHANGING MSHR THRESHOLD FROM 2 TO 3
CHANGING MSHR THRESHOLD FROM 3 TO 5
CHANGING MSHR THRESHOLD FROM 5 TO 6
CHANGING MSHR THRESHOLD FROM 6 TO 8
CHANGING MSHR THRESHOLD FROM 8 TO 10
CHANGING MSHR THRESHOLD FROM 10 TO 11
OFFSET CHANGED FROM 11 TO 1
CHANGING MSHR THRESHOLD FROM 11 TO MAX 28
OFFSET CHANGED FROM 1 TO 11
CHANGING MSHR THRESHOLD FROM 28 TO 26
CHANGING MSHR THRESHOLD FROM 26 TO 24
CHANGING MSHR THRESHOLD FROM 24 TO 23
CHANGING MSHR THRESHOLD FROM 23 TO 21
CHANGING MSHR THRESHOLD FROM 21 TO 19
CHANGING MSHR THRESHOLD FROM 19 TO 18
CHANGING MSHR THRESHOLD FROM 18 TO 16
CHANGING MSHR THRESHOLD FROM 16 TO 15
CHANGING MSHR THRESHOLD FROM 15 TO 13
CHANGING MSHR THRESHOLD FROM 13 TO 11
CHANGING MSHR THRESHOLD FROM 11 TO 10
CHANGING MSHR THRESHOLD FROM 10 TO 8
CHANGING MSHR THRESHOLD FROM 8 TO 6
CHANGING MSHR THRESHOLD FROM 6 TO 5
CHANGING MSHR THRESHOLD FROM 5 TO 3
CHANGING MSHR THRESHOLD FROM 3 TO 5
CHANGING MSHR THRESHOLD FROM 5 TO 6
CHANGING MSHR THRESHOLD FROM 6 TO 8
CHANGING MSHR THRESHOLD FROM 8 TO 10
CHANGING MSHR THRESHOLD FROM 10 TO 11
CHANGING MSHR THRESHOLD FROM 11 TO 13
CHANGING MSHR THRESHOLD FROM 13 TO 15
CHANGING MSHR THRESHOLD FROM 15 TO 16
CHANGING MSHR THRESHOLD FROM 16 TO 18
CHANGING MSHR THRESHOLD FROM 18 TO 19
CHANGING MSHR THRESHOLD FROM 19 TO 21
CHANGING MSHR THRESHOLD FROM 21 TO 23
CHANGING MSHR THRESHOLD FROM 23 TO 24
CHANGING MSHR THRESHOLD FROM 24 TO 26
CHANGING MSHR THRESHOLD FROM 26 TO 28
OFFSET CHANGED FROM 11 TO 1
CHANGING MSHR THRESHOLD FROM 28 TO 26
CHANGING MSHR THRESHOLD FROM 26 TO 24
CHANGING MSHR THRESHOLD FROM 24 TO 23
CHANGING MSHR THRESHOLD FROM 23 TO 21
CHANGING MSHR THRESHOLD FROM 21 TO 19
CHANGING MSHR THRESHOLD FROM 19 TO 21
CHANGING MSHR THRESHOLD FROM 21 TO 23
CHANGING MSHR THRESHOLD FROM 23 TO 24
CHANGING MSHR THRESHOLD FROM 24 TO 26
CHANGING MSHR THRESHOLD FROM 26 TO 28
OFFSET CHANGED FROM 1 TO 1
CHANGING MSHR THRESHOLD FROM 28 TO 26
CHANGING MSHR THRESHOLD FROM 26 TO 24
CHANGING MSHR THRESHOLD FROM 24 TO 23
CHANGING MSHR THRESHOLD FROM 23 TO 21
CHANGING MSHR THRESHOLD FROM 21 TO 19
CHANGING MSHR THRESHOLD FROM 19 TO 18
CHANGING MSHR THRESHOLD FROM 18 TO 16
CHANGING MSHR THRESHOLD FROM 16 TO 15
CHANGING MSHR THRESHOLD FROM 15 TO 13
CHANGING MSHR THRESHOLD FROM 13 TO 11
CHANGING MSHR THRESHOLD FROM 11 TO 10
CHANGING MSHR THRESHOLD FROM 10 TO 8
CHANGING MSHR THRESHOLD FROM 8 TO 6
CHANGING MSHR THRESHOLD FROM 6 TO 5
CHANGING MSHR THRESHOLD FROM 5 TO 3
CHANGING MSHR THRESHOLD FROM 3 TO 2
CHANGING MSHR THRESHOLD FROM 2 TO 3
CHANGING MSHR THRESHOLD FROM 3 TO 5
CHANGING MSHR THRESHOLD FROM 5 TO 6
CHANGING MSHR THRESHOLD FROM 6 TO 8
CHANGING MSHR THRESHOLD FROM 8 TO 10
CHANGING MSHR THRESHOLD FROM 10 TO 11
CHANGING MSHR THRESHOLD FROM 11 TO 13
CHANGING MSHR THRESHOLD FROM 13 TO 15
CHANGING MSHR THRESHOLD FROM 15 TO 16
CHANGING MSHR THRESHOLD FROM 16 TO 18
CHANGING MSHR THRESHOLD FROM 18 TO 19
CHANGING MSHR THRESHOLD FROM 19 TO 21
CHANGING MSHR THRESHOLD FROM 21 TO 23
CHANGING MSHR THRESHOLD FROM 23 TO 24
CHANGING MSHR THRESHOLD FROM 24 TO 26
CHANGING MSHR THRESHOLD FROM 26 TO 28
CHANGING MSHR THRESHOLD FROM 28 TO 26
CHANGING MSHR THRESHOLD FROM 26 TO 24
CHANGING MSHR THRESHOLD FROM 24 TO 23
CHANGING MSHR THRESHOLD FROM 23 TO 21
CHANGING MSHR THRESHOLD FROM 21 TO 19
CHANGING MSHR THRESHOLD FROM 19 TO 18
CHANGING MSHR THRESHOLD FROM 18 TO 16
CHANGING MSHR THRESHOLD FROM 16 TO 15
CHANGING MSHR THRESHOLD FROM 15 TO 13
CHANGING MSHR THRESHOLD FROM 13 TO 11
CHANGING MSHR THRESHOLD FROM 11 TO 10
CHANGING MSHR THRESHOLD FROM 10 TO 8
CHANGING MSHR THRESHOLD FROM 8 TO 6
CHANGING MSHR THRESHOLD FROM 6 TO 5
CHANGING MSHR THRESHOLD FROM 5 TO 3
CHANGING MSHR THRESHOLD FROM 3 TO 2
CHANGING MSHR THRESHOLD FROM 2 TO 3
CHANGING MSHR THRESHOLD FROM 3 TO 5
CHANGING MSHR THRESHOLD FROM 5 TO 6
CHANGING MSHR THRESHOLD FROM 6 TO 8
CHANGING MSHR THRESHOLD FROM 8 TO 10
CHANGING MSHR THRESHOLD FROM 10 TO 11
CHANGING MSHR THRESHOLD FROM 11 TO 13
CHANGING MSHR THRESHOLD FROM 13 TO 15
CHANGING MSHR THRESHOLD FROM 15 TO 16
CHANGING MSHR THRESHOLD FROM 16 TO 18
CHANGING MSHR THRESHOLD FROM 18 TO 19
CHANGING MSHR THRESHOLD FROM 19 TO 21
CHANGING MSHR THRESHOLD FROM 21 TO 23
CHANGING MSHR THRESHOLD FROM 23 TO 24
CHANGING MSHR THRESHOLD FROM 24 TO 26
CHANGING MSHR THRESHOLD FROM 26 TO 28
CHANGING MSHR THRESHOLD FROM 28 TO 26
CHANGING MSHR THRESHOLD FROM 26 TO 24
CHANGING MSHR THRESHOLD FROM 24 TO 23
CHANGING MSHR THRESHOLD FROM 23 TO 21
CHANGING MSHR THRESHOLD FROM 21 TO 19
CHANGING MSHR THRESHOLD FROM 19 TO 18
CHANGING MSHR THRESHOLD FROM 18 TO 16
CHANGING MSHR THRESHOLD FROM 16 TO 15
CHANGING MSHR THRESHOLD FROM 15 TO 13
CHANGING MSHR THRESHOLD FROM 13 TO 11
CHANGING MSHR THRESHOLD FROM 11 TO 10
CHANGING MSHR THRESHOLD FROM 10 TO 8
CHANGING MSHR THRESHOLD FROM 8 TO 6
CHANGING MSHR THRESHOLD FROM 6 TO 5
CHANGING MSHR THRESHOLD FROM 5 TO 3
CHANGING MSHR THRESHOLD FROM 3 TO 2
CHANGING MSHR THRESHOLD FROM 2 TO 3
CHANGING MSHR THRESHOLD FROM 3 TO 5
CHANGING MSHR THRESHOLD FROM 5 TO 6
CHANGING MSHR THRESHOLD FROM 6 TO 8
CHANGING MSHR THRESHOLD FROM 8 TO 10
CHANGING MSHR THRESHOLD FROM 10 TO 11
CHANGING MSHR THRESHOLD FROM 11 TO 13
CHANGING MSHR THRESHOLD FROM 13 TO 15
CHANGING MSHR THRESHOLD FROM 15 TO 16
CHANGING MSHR THRESHOLD FROM 16 TO 18
CHANGING MSHR THRESHOLD FROM 18 TO 19
CHANGING MSHR THRESHOLD FROM 19 TO 21
CHANGING MSHR THRESHOLD FROM 21 TO 23
OFFSET CHANGED FROM 1 TO 18
CHANGING MSHR THRESHOLD FROM 23 TO 24
CHANGING MSHR THRESHOLD FROM 24 TO 26
CHANGING MSHR THRESHOLD FROM 26 TO 28
CHANGING MSHR THRESHOLD FROM 28 TO 26
CHANGING MSHR THRESHOLD FROM 26 TO 24
CHANGING MSHR THRESHOLD FROM 24 TO 23
CHANGING MSHR THRESHOLD FROM 23 TO 21
CHANGING MSHR THRESHOLD FROM 21 TO 19
CHANGING MSHR THRESHOLD FROM 19 TO 18
CHANGING MSHR THRESHOLD FROM 18 TO 16
CHANGING MSHR THRESHOLD FROM 16 TO 15
CHANGING MSHR THRESHOLD FROM 15 TO 13
CHANGING MSHR THRESHOLD FROM 13 TO 11
CHANGING MSHR THRESHOLD FROM 11 TO 10
CHANGING MSHR THRESHOLD FROM 10 TO 8
CHANGING MSHR THRESHOLD FROM 8 TO 6
CHANGING MSHR THRESHOLD FROM 6 TO 5
CHANGING MSHR THRESHOLD FROM 5 TO 3
CHANGING MSHR THRESHOLD FROM 3 TO 2
CHANGING MSHR THRESHOLD FROM 2 TO 3
CHANGING MSHR THRESHOLD FROM 3 TO 5
CHANGING MSHR THRESHOLD FROM 5 TO 6
CHANGING MSHR THRESHOLD FROM 6 TO 8
CHANGING MSHR THRESHOLD FROM 8 TO 10
CHANGING MSHR THRESHOLD FROM 10 TO 11
CHANGING MSHR THRESHOLD FROM 11 TO 13
CHANGING MSHR THRESHOLD FROM 13 TO 15
CHANGING MSHR THRESHOLD FROM 15 TO 16
CHANGING MSHR THRESHOLD FROM 16 TO 18
CHANGING MSHR THRESHOLD FROM 18 TO 19
CHANGING MSHR THRESHOLD FROM 19 TO 21
CHANGING MSHR THRESHOLD FROM 21 TO 23
CHANGING MSHR THRESHOLD FROM 23 TO 24
CHANGING MSHR THRESHOLD FROM 24 TO 26
CHANGING MSHR THRESHOLD FROM 26 TO 28
CHANGING MSHR THRESHOLD FROM 28 TO 26
CHANGING MSHR THRESHOLD FROM 26 TO 24
CHANGING MSHR THRESHOLD FROM 24 TO 23
CHANGING MSHR THRESHOLD FROM 23 TO 21
CHANGING MSHR THRESHOLD FROM 21 TO 19
CHANGING MSHR THRESHOLD FROM 19 TO 18
CHANGING MSHR THRESHOLD FROM 18 TO 16
CHANGING MSHR THRESHOLD FROM 16 TO 15
CHANGING MSHR THRESHOLD FROM 15 TO 13
CHANGING MSHR THRESHOLD FROM 13 TO 11
CHANGING MSHR THRESHOLD FROM 11 TO 10
CHANGING MSHR THRESHOLD FROM 10 TO 8
CHANGING MSHR THRESHOLD FROM 8 TO 6
CHANGING MSHR THRESHOLD FROM 6 TO 5
CHANGING MSHR THRESHOLD FROM 5 TO 6
CHANGING MSHR THRESHOLD FROM 6 TO 8
CHANGING MSHR THRESHOLD FROM 8 TO 10
CHANGING MSHR THRESHOLD FROM 10 TO 11
CHANGING MSHR THRESHOLD FROM 11 TO 13
CHANGING MSHR THRESHOLD FROM 13 TO 15
CHANGING MSHR THRESHOLD FROM 15 TO 16
CHANGING MSHR THRESHOLD FROM 16 TO 18
CHANGING MSHR THRESHOLD FROM 18 TO 19
CHANGING MSHR THRESHOLD FROM 19 TO 21
CHANGING MSHR THRESHOLD FROM 21 TO 23
CHANGING MSHR THRESHOLD FROM 23 TO 24
CHANGING MSHR THRESHOLD FROM 24 TO 26
CHANGING MSHR THRESHOLD FROM 26 TO 28
OFFSET CHANGED FROM 18 TO 1
CHANGING MSHR THRESHOLD FROM 28 TO 26
CHANGING MSHR THRESHOLD FROM 26 TO 24
CHANGING MSHR THRESHOLD FROM 24 TO 23
CHANGING MSHR THRESHOLD FROM 23 TO 21
CHANGING MSHR THRESHOLD FROM 21 TO 19
CHANGING MSHR THRESHOLD FROM 19 TO 18
CHANGING MSHR THRESHOLD FROM 18 TO 16
CHANGING MSHR THRESHOLD FROM 16 TO 15
CHANGING MSHR THRESHOLD FROM 15 TO 13
CHANGING MSHR THRESHOLD FROM 13 TO 11
CHANGING MSHR THRESHOLD FROM 11 TO 10
CHANGING MSHR THRESHOLD FROM 10 TO 8
CHANGING MSHR THRESHOLD FROM 8 TO 6
CHANGING MSHR THRESHOLD FROM 6 TO 5
CHANGING MSHR THRESHOLD FROM 5 TO 3
CHANGING MSHR THRESHOLD FROM 3 TO 2
CHANGING MSHR THRESHOLD FROM 2 TO 3
CHANGING MSHR THRESHOLD FROM 3 TO 5
CHANGING MSHR THRESHOLD FROM 5 TO 6
CHANGING MSHR THRESHOLD FROM 6 TO 8
CHANGING MSHR THRESHOLD FROM 8 TO 10
CHANGING MSHR THRESHOLD FROM 10 TO 11
CHANGING MSHR THRESHOLD FROM 11 TO 13
CHANGING MSHR THRESHOLD FROM 13 TO 15
CHANGING MSHR THRESHOLD FROM 15 TO 16
CHANGING MSHR THRESHOLD FROM 16 TO 18
CHANGING MSHR THRESHOLD FROM 18 TO 19
CHANGING MSHR THRESHOLD FROM 19 TO 21
CHANGING MSHR THRESHOLD FROM 21 TO 23
CHANGING MSHR THRESHOLD FROM 23 TO 24
CHANGING MSHR THRESHOLD FROM 24 TO 26
CHANGING MSHR THRESHOLD FROM 26 TO 28
CHANGING MSHR THRESHOLD FROM 28 TO 26
CHANGING MSHR THRESHOLD FROM 26 TO 24
CHANGING MSHR THRESHOLD FROM 24 TO 23
CHANGING MSHR THRESHOLD FROM 23 TO 21
CHANGING MSHR THRESHOLD FROM 21 TO 19
CHANGING MSHR THRESHOLD FROM 19 TO 18
CHANGING MSHR THRESHOLD FROM 18 TO 16
CHANGING MSHR THRESHOLD FROM 16 TO 15
CHANGING MSHR THRESHOLD FROM 15 TO 13
CHANGING MSHR THRESHOLD FROM 13 TO 11
CHANGING MSHR THRESHOLD FROM 11 TO 10
CHANGING MSHR THRESHOLD FROM 10 TO 8
CHANGING MSHR THRESHOLD FROM 8 TO 6
CHANGING MSHR THRESHOLD FROM 6 TO 5
CHANGING MSHR THRESHOLD FROM 5 TO 3
CHANGING MSHR THRESHOLD FROM 3 TO 2
CHANGING MSHR THRESHOLD FROM 2 TO 3
CHANGING MSHR THRESHOLD FROM 3 TO 5
CHANGING MSHR THRESHOLD FROM 5 TO 6
CHANGING MSHR THRESHOLD FROM 6 TO 8
CHANGING MSHR THRESHOLD FROM 8 TO 10
CHANGING MSHR THRESHOLD FROM 10 TO 11
CHANGING MSHR THRESHOLD FROM 11 TO 13
CHANGING MSHR THRESHOLD FROM 13 TO 15
CHANGING MSHR THRESHOLD FROM 15 TO 16
CHANGING MSHR THRESHOLD FROM 16 TO 18
CHANGING MSHR THRESHOLD FROM 18 TO 19
CHANGING MSHR THRESHOLD FROM 19 TO 21
CHANGING MSHR THRESHOLD FROM 21 TO 23
CHANGING MSHR THRESHOLD FROM 23 TO 24
CHANGING MSHR THRESHOLD FROM 24 TO 26
CHANGING MSHR THRESHOLD FROM 26 TO 28
OFFSET CHANGED FROM 1 TO 1
Heartbeat CPU 0 instructions: 50000001 cycles: 16582768 heartbeat IPC: 2.99552 cumulative IPC: 3.01518 (Simulation time: 0 hr 2 min 0 sec) 

Warmup complete CPU 0 instructions: 50000001 cycles: 16582768 (Simulation time: 0 hr 2 min 0 sec) 

OFFSET CHANGED FROM 1 TO 1
OFFSET CHANGED FROM 1 TO 1
OFFSET CHANGED FROM 1 TO 1
CHANGING MSHR THRESHOLD FROM 28 TO 26
CHANGING MSHR THRESHOLD FROM 26 TO 24
CHANGING MSHR THRESHOLD FROM 24 TO 23
CHANGING MSHR THRESHOLD FROM 23 TO 21
CHANGING MSHR THRESHOLD FROM 21 TO 19
CHANGING MSHR THRESHOLD FROM 19 TO 18
CHANGING MSHR THRESHOLD FROM 18 TO 16
CHANGING MSHR THRESHOLD FROM 16 TO 15
CHANGING MSHR THRESHOLD FROM 15 TO 13
CHANGING MSHR THRESHOLD FROM 13 TO 11
CHANGING MSHR THRESHOLD FROM 11 TO 10
CHANGING MSHR THRESHOLD FROM 10 TO 8
CHANGING MSHR THRESHOLD FROM 8 TO 6
CHANGING MSHR THRESHOLD FROM 6 TO 5
CHANGING MSHR THRESHOLD FROM 5 TO 3
CHANGING MSHR THRESHOLD FROM 3 TO 2
NO PREFETCH REQUEST BECAUSE PREFETCH SCORE 19 IS NOT GREATER THAN 20 (MSHR OCC = 2)
NO PREFETCH REQUEST BECAUSE PREFETCH SCORE 19 IS NOT GREATER THAN 20 (MSHR OCC = 2)
NO PREFETCH REQUEST BECAUSE PREFETCH SCORE 19 IS NOT GREATER THAN 20 (MSHR OCC = 2)
NO PREFETCH REQUEST BECAUSE PREFETCH SCORE 19 IS NOT GREATER THAN 20 (MSHR OCC = 6)
NO PREFETCH REQUEST BECAUSE PREFETCH SCORE 19 IS NOT GREATER THAN 20 (MSHR OCC = 6)
NO PREFETCH REQUEST BECAUSE PREFETCH SCORE 19 IS NOT GREATER THAN 20 (MSHR OCC = 6)
NO PREFETCH REQUEST BECAUSE PREFETCH SCORE 19 IS NOT GREATER THAN 20 (MSHR OCC = 6)
NO PREFETCH REQUEST BECAUSE PREFETCH SCORE 19 IS NOT GREATER THAN 20 (MSHR OCC = 6)
NO PREFETCH REQUEST BECAUSE PREFETCH SCORE 19 IS NOT GREATER THAN 20 (MSHR OCC = 6)
NO PREFETCH REQUEST BECAUSE PREFETCH SCORE 19 IS NOT GREATER THAN 20 (MSHR OCC = 6)
NO PREFETCH REQUEST BECAUSE PREFETCH SCORE 19 IS NOT GREATER THAN 20 (MSHR OCC = 6)
NO PREFETCH REQUEST BECAUSE PREFETCH SCORE 19 IS NOT GREATER THAN 20 (MSHR OCC = 2)
NO PREFETCH REQUEST BECAUSE PREFETCH SCORE 19 IS NOT GREATER THAN 20 (MSHR OCC = 2)
NO PREFETCH REQUEST BECAUSE PREFETCH SCORE 19 IS NOT GREATER THAN 20 (MSHR OCC = 2)
NO PREFETCH REQUEST BECAUSE PREFETCH SCORE 19 IS NOT GREATER THAN 20 (MSHR OCC = 3)
NO PREFETCH REQUEST BECAUSE PREFETCH SCORE 19 IS NOT GREATER THAN 20 (MSHR OCC = 2)
NO PREFETCH REQUEST BECAUSE PREFETCH SCORE 19 IS NOT GREATER THAN 20 (MSHR OCC = 2)
NO PREFETCH REQUEST BECAUSE PREFETCH SCORE 19 IS NOT GREATER THAN 20 (MSHR OCC = 2)
NO PREFETCH REQUEST BECAUSE PREFETCH SCORE 19 IS NOT GREATER THAN 20 (MSHR OCC = 2)
NO PREFETCH REQUEST BECAUSE PREFETCH SCORE 19 IS NOT GREATER THAN 20 (MSHR OCC = 2)
NO PREFETCH REQUEST BECAUSE PREFETCH SCORE 19 IS NOT GREATER THAN 20 (MSHR OCC = 2)
NO PREFETCH REQUEST BECAUSE PREFETCH SCORE 19 IS NOT GREATER THAN 20 (MSHR OCC = 2)
NO PREFETCH REQUEST BECAUSE PREFETCH SCORE 19 IS NOT GREATER THAN 20 (MSHR OCC = 2)
NO PREFETCH REQUEST BECAUSE PREFETCH SCORE 19 IS NOT GREATER THAN 20 (MSHR OCC = 2)
NO PREFETCH REQUEST BECAUSE PREFETCH SCORE 19 IS NOT GREATER THAN 20 (MSHR OCC = 2)
NO PREFETCH REQUEST BECAUSE PREFETCH SCORE 19 IS NOT GREATER THAN 20 (MSHR OCC = 2)
NO PREFETCH REQUEST BECAUSE PREFETCH SCORE 19 IS NOT GREATER THAN 20 (MSHR OCC = 3)
NO PREFETCH REQUEST BECAUSE PREFETCH SCORE 19 IS NOT GREATER THAN 20 (MSHR OCC = 2)
NO PREFETCH REQUEST BECAUSE PREFETCH SCORE 19 IS NOT GREATER THAN 20 (MSHR OCC = 2)
NO PREFETCH REQUEST BECAUSE PREFETCH SCORE 19 IS NOT GREATER THAN 20 (MSHR OCC = 2)
NO PREFETCH REQUEST BECAUSE PREFETCH SCORE 19 IS NOT GREATER THAN 20 (MSHR OCC = 2)
NO PREFETCH REQUEST BECAUSE PREFETCH SCORE 19 IS NOT GREATER THAN 20 (MSHR OCC = 2)
NO PREFETCH REQUEST BECAUSE PREFETCH SCORE 19 IS NOT GREATER THAN 20 (MSHR OCC = 2)
NO PREFETCH REQUEST BECAUSE PREFETCH SCORE 19 IS NOT GREATER THAN 20 (MSHR OCC = 2)
NO PREFETCH REQUEST BECAUSE PREFETCH SCORE 19 IS NOT GREATER THAN 20 (MSHR OCC = 2)
NO PREFETCH REQUEST BECAUSE PREFETCH SCORE 19 IS NOT GREATER THAN 20 (MSHR OCC = 2)
NO PREFETCH REQUEST BECAUSE PREFETCH SCORE 19 IS NOT GREATER THAN 20 (MSHR OCC = 2)
NO PREFETCH REQUEST BECAUSE PREFETCH SCORE 19 IS NOT GREATER THAN 20 (MSHR OCC = 2)
NO PREFETCH REQUEST BECAUSE PREFETCH SCORE 19 IS NOT GREATER THAN 20 (MSHR OCC = 3)
NO PREFETCH REQUEST BECAUSE PREFETCH SCORE 19 IS NOT GREATER THAN 20 (MSHR OCC = 3)
NO PREFETCH REQUEST BECAUSE PREFETCH SCORE 19 IS NOT GREATER THAN 20 (MSHR OCC = 3)
NO PREFETCH REQUEST BECAUSE PREFETCH SCORE 19 IS NOT GREATER THAN 20 (MSHR OCC = 3)
NO PREFETCH REQUEST BECAUSE PREFETCH SCORE 19 IS NOT GREATER THAN 20 (MSHR OCC = 3)
NO PREFETCH REQUEST BECAUSE PREFETCH SCORE 19 IS NOT GREATER THAN 20 (MSHR OCC = 3)
NO PREFETCH REQUEST BECAUSE PREFETCH SCORE 19 IS NOT GREATER THAN 20 (MSHR OCC = 3)
NO PREFETCH REQUEST BECAUSE PREFETCH SCORE 19 IS NOT GREATER THAN 20 (MSHR OCC = 3)
NO PREFETCH REQUEST BECAUSE PREFETCH SCORE 19 IS NOT GREATER THAN 20 (MSHR OCC = 3)
NO PREFETCH REQUEST BECAUSE PREFETCH SCORE 19 IS NOT GREATER THAN 20 (MSHR OCC = 2)
NO PREFETCH REQUEST BECAUSE PREFETCH SCORE 19 IS NOT GREATER THAN 20 (MSHR OCC = 2)
NO PREFETCH REQUEST BECAUSE PREFETCH SCORE 19 IS NOT GREATER THAN 20 (MSHR OCC = 2)
NO PREFETCH REQUEST BECAUSE PREFETCH SCORE 19 IS NOT GREATER THAN 20 (MSHR OCC = 14)
NO PREFETCH REQUEST BECAUSE PREFETCH SCORE 19 IS NOT GREATER THAN 20 (MSHR OCC = 14)
NO PREFETCH REQUEST BECAUSE PREFETCH SCORE 19 IS NOT GREATER THAN 20 (MSHR OCC = 14)
NO PREFETCH REQUEST BECAUSE PREFETCH SCORE 19 IS NOT GREATER THAN 20 (MSHR OCC = 11)
NO PREFETCH REQUEST BECAUSE PREFETCH SCORE 19 IS NOT GREATER THAN 20 (MSHR OCC = 11)
CHANGING MSHR THRESHOLD FROM 2 TO 3
CHANGING MSHR THRESHOLD FROM 3 TO 5
CHANGING MSHR THRESHOLD FROM 5 TO 6
CHANGING MSHR THRESHOLD FROM 6 TO 8
CHANGING MSHR THRESHOLD FROM 8 TO 10
CHANGING MSHR THRESHOLD FROM 10 TO 11
CHANGING MSHR THRESHOLD FROM 11 TO 13
CHANGING MSHR THRESHOLD FROM 13 TO 15
CHANGING MSHR THRESHOLD FROM 15 TO 16
CHANGING MSHR THRESHOLD FROM 16 TO 18
CHANGING MSHR THRESHOLD FROM 18 TO 19
CHANGING MSHR THRESHOLD FROM 19 TO 21
CHANGING MSHR THRESHOLD FROM 21 TO 23
CHANGING MSHR THRESHOLD FROM 23 TO 24
CHANGING MSHR THRESHOLD FROM 24 TO 26
CHANGING MSHR THRESHOLD FROM 26 TO 28
OFFSET CHANGED FROM 1 TO 1
OFFSET CHANGED FROM 1 TO 11
CHANGING MSHR THRESHOLD FROM 28 TO 26
CHANGING MSHR THRESHOLD FROM 26 TO 24
CHANGING MSHR THRESHOLD FROM 24 TO 23
CHANGING MSHR THRESHOLD FROM 23 TO 21
CHANGING MSHR THRESHOLD FROM 21 TO 19
CHANGING MSHR THRESHOLD FROM 19 TO 18
CHANGING MSHR THRESHOLD FROM 18 TO 16
CHANGING MSHR THRESHOLD FROM 16 TO 15
NO PREFETCH REQUEST BECAUSE PREFETCH SCORE 12 IS NOT GREATER THAN 20 (MSHR OCC = 15)
CHANGING MSHR THRESHOLD FROM 15 TO 13
NO PREFETCH REQUEST BECAUSE PREFETCH SCORE 12 IS NOT GREATER THAN 20 (MSHR OCC = 14)
CHANGING MSHR THRESHOLD FROM 13 TO 11
CHANGING MSHR THRESHOLD FROM 11 TO 10
CHANGING MSHR THRESHOLD FROM 10 TO 8
NO PREFETCH REQUEST BECAUSE PREFETCH SCORE 12 IS NOT GREATER THAN 20 (MSHR OCC = 9)
CHANGING MSHR THRESHOLD FROM 8 TO 6
NO PREFETCH REQUEST BECAUSE PREFETCH SCORE 12 IS NOT GREATER THAN 20 (MSHR OCC = 9)
CHANGING MSHR THRESHOLD FROM 6 TO 5
NO PREFETCH REQUEST BECAUSE PREFETCH SCORE 12 IS NOT GREATER THAN 20 (MSHR OCC = 10)
CHANGING MSHR THRESHOLD FROM 5 TO 3
NO PREFETCH REQUEST BECAUSE PREFETCH SCORE 12 IS NOT GREATER THAN 20 (MSHR OCC = 10)
CHANGING MSHR THRESHOLD FROM 3 TO 2
NO PREFETCH REQUEST BECAUSE PREFETCH SCORE 12 IS NOT GREATER THAN 20 (MSHR OCC = 10)
NO PREFETCH REQUEST BECAUSE PREFETCH SCORE 12 IS NOT GREATER THAN 20 (MSHR OCC = 9)
NO PREFETCH REQUEST BECAUSE PREFETCH SCORE 12 IS NOT GREATER THAN 20 (MSHR OCC = 5)
NO PREFETCH REQUEST BECAUSE PREFETCH SCORE 12 IS NOT GREATER THAN 20 (MSHR OCC = 5)
NO PREFETCH REQUEST BECAUSE PREFETCH SCORE 12 IS NOT GREATER THAN 20 (MSHR OCC = 5)
NO PREFETCH REQUEST BECAUSE PREFETCH SCORE 12 IS NOT GREATER THAN 20 (MSHR OCC = 5)
NO PREFETCH REQUEST BECAUSE PREFETCH SCORE 12 IS NOT GREATER THAN 20 (MSHR OCC = 4)
NO PREFETCH REQUEST BECAUSE PREFETCH SCORE 12 IS NOT GREATER THAN 20 (MSHR OCC = 4)
NO PREFETCH REQUEST BECAUSE PREFETCH SCORE 12 IS NOT GREATER THAN 20 (MSHR OCC = 4)
NO PREFETCH REQUEST BECAUSE PREFETCH SCORE 12 IS NOT GREATER THAN 20 (MSHR OCC = 4)
NO PREFETCH REQUEST BECAUSE PREFETCH SCORE 12 IS NOT GREATER THAN 20 (MSHR OCC = 4)
NO PREFETCH REQUEST BECAUSE PREFETCH SCORE 12 IS NOT GREATER THAN 20 (MSHR OCC = 4)
NO PREFETCH REQUEST BECAUSE PREFETCH SCORE 12 IS NOT GREATER THAN 20 (MSHR OCC = 4)
NO PREFETCH REQUEST BECAUSE PREFETCH SCORE 12 IS NOT GREATER THAN 20 (MSHR OCC = 4)
NO PREFETCH REQUEST BECAUSE PREFETCH SCORE 12 IS NOT GREATER THAN 20 (MSHR OCC = 2)
NO PREFETCH REQUEST BECAUSE PREFETCH SCORE 12 IS NOT GREATER THAN 20 (MSHR OCC = 2)
NO PREFETCH REQUEST BECAUSE PREFETCH SCORE 12 IS NOT GREATER THAN 20 (MSHR OCC = 2)
NO PREFETCH REQUEST BECAUSE PREFETCH SCORE 12 IS NOT GREATER THAN 20 (MSHR OCC = 4)
NO PREFETCH REQUEST BECAUSE PREFETCH SCORE 12 IS NOT GREATER THAN 20 (MSHR OCC = 4)
NO PREFETCH REQUEST BECAUSE PREFETCH SCORE 12 IS NOT GREATER THAN 20 (MSHR OCC = 4)
NO PREFETCH REQUEST BECAUSE PREFETCH SCORE 12 IS NOT GREATER THAN 20 (MSHR OCC = 4)
NO PREFETCH REQUEST BECAUSE PREFETCH SCORE 12 IS NOT GREATER THAN 20 (MSHR OCC = 4)
NO PREFETCH REQUEST BECAUSE PREFETCH SCORE 12 IS NOT GREATER THAN 20 (MSHR OCC = 4)
NO PREFETCH REQUEST BECAUSE PREFETCH SCORE 12 IS NOT GREATER THAN 20 (MSHR OCC = 4)
NO PREFETCH REQUEST BECAUSE PREFETCH SCORE 12 IS NOT GREATER THAN 20 (MSHR OCC = 4)
NO PREFETCH REQUEST BECAUSE PREFETCH SCORE 12 IS NOT GREATER THAN 20 (MSHR OCC = 4)
NO PREFETCH REQUEST BECAUSE PREFETCH SCORE 12 IS NOT GREATER THAN 20 (MSHR OCC = 4)
NO PREFETCH REQUEST BECAUSE PREFETCH SCORE 12 IS NOT GREATER THAN 20 (MSHR OCC = 4)
NO PREFETCH REQUEST BECAUSE PREFETCH SCORE 12 IS NOT GREATER THAN 20 (MSHR OCC = 4)
NO PREFETCH REQUEST BECAUSE PREFETCH SCORE 12 IS NOT GREATER THAN 20 (MSHR OCC = 4)
NO PREFETCH REQUEST BECAUSE PREFETCH SCORE 12 IS NOT GREATER THAN 20 (MSHR OCC = 2)
NO PREFETCH REQUEST BECAUSE PREFETCH SCORE 12 IS NOT GREATER THAN 20 (MSHR OCC = 2)
NO PREFETCH REQUEST BECAUSE PREFETCH SCORE 12 IS NOT GREATER THAN 20 (MSHR OCC = 2)
NO PREFETCH REQUEST BECAUSE PREFETCH SCORE 12 IS NOT GREATER THAN 20 (MSHR OCC = 2)
NO PREFETCH REQUEST BECAUSE PREFETCH SCORE 12 IS NOT GREATER THAN 20 (MSHR OCC = 2)
NO PREFETCH REQUEST BECAUSE PREFETCH SCORE 12 IS NOT GREATER THAN 20 (MSHR OCC = 2)
NO PREFETCH REQUEST BECAUSE PREFETCH SCORE 12 IS NOT GREATER THAN 20 (MSHR OCC = 2)
NO PREFETCH REQUEST BECAUSE PREFETCH SCORE 12 IS NOT GREATER THAN 20 (MSHR OCC = 2)
NO PREFETCH REQUEST BECAUSE PREFETCH SCORE 12 IS NOT GREATER THAN 20 (MSHR OCC = 2)
NO PREFETCH REQUEST BECAUSE PREFETCH SCORE 12 IS NOT GREATER THAN 20 (MSHR OCC = 2)
NO PREFETCH REQUEST BECAUSE PREFETCH SCORE 12 IS NOT GREATER THAN 20 (MSHR OCC = 2)
NO PREFETCH REQUEST BECAUSE PREFETCH SCORE 12 IS NOT GREATER THAN 20 (MSHR OCC = 2)
NO PREFETCH REQUEST BECAUSE PREFETCH SCORE 12 IS NOT GREATER THAN 20 (MSHR OCC = 2)
NO PREFETCH REQUEST BECAUSE PREFETCH SCORE 12 IS NOT GREATER THAN 20 (MSHR OCC = 2)
NO PREFETCH REQUEST BECAUSE PREFETCH SCORE 12 IS NOT GREATER THAN 20 (MSHR OCC = 2)
NO PREFETCH REQUEST BECAUSE PREFETCH SCORE 12 IS NOT GREATER THAN 20 (MSHR OCC = 2)
NO PREFETCH REQUEST BECAUSE PREFETCH SCORE 12 IS NOT GREATER THAN 20 (MSHR OCC = 2)
NO PREFETCH REQUEST BECAUSE PREFETCH SCORE 12 IS NOT GREATER THAN 20 (MSHR OCC = 2)
NO PREFETCH REQUEST BECAUSE PREFETCH SCORE 12 IS NOT GREATER THAN 20 (MSHR OCC = 2)
NO PREFETCH REQUEST BECAUSE PREFETCH SCORE 12 IS NOT GREATER THAN 20 (MSHR OCC = 2)
NO PREFETCH REQUEST BECAUSE PREFETCH SCORE 12 IS NOT GREATER THAN 20 (MSHR OCC = 2)
NO PREFETCH REQUEST BECAUSE PREFETCH SCORE 12 IS NOT GREATER THAN 20 (MSHR OCC = 2)
NO PREFETCH REQUEST BECAUSE PREFETCH SCORE 12 IS NOT GREATER THAN 20 (MSHR OCC = 2)
NO PREFETCH REQUEST BECAUSE PREFETCH SCORE 12 IS NOT GREATER THAN 20 (MSHR OCC = 3)
NO PREFETCH REQUEST BECAUSE PREFETCH SCORE 12 IS NOT GREATER THAN 20 (MSHR OCC = 2)
NO PREFETCH REQUEST BECAUSE PREFETCH SCORE 12 IS NOT GREATER THAN 20 (MSHR OCC = 2)
NO PREFETCH REQUEST BECAUSE PREFETCH SCORE 12 IS NOT GREATER THAN 20 (MSHR OCC = 2)
NO PREFETCH REQUEST BECAUSE PREFETCH SCORE 12 IS NOT GREATER THAN 20 (MSHR OCC = 2)
NO PREFETCH REQUEST BECAUSE PREFETCH SCORE 12 IS NOT GREATER THAN 20 (MSHR OCC = 2)
NO PREFETCH REQUEST BECAUSE PREFETCH SCORE 12 IS NOT GREATER THAN 20 (MSHR OCC = 2)
NO PREFETCH REQUEST BECAUSE PREFETCH SCORE 12 IS NOT GREATER THAN 20 (MSHR OCC = 2)
NO PREFETCH REQUEST BECAUSE PREFETCH SCORE 12 IS NOT GREATER THAN 20 (MSHR OCC = 2)
NO PREFETCH REQUEST BECAUSE PREFETCH SCORE 12 IS NOT GREATER THAN 20 (MSHR OCC = 2)
NO PREFETCH REQUEST BECAUSE PREFETCH SCORE 12 IS NOT GREATER THAN 20 (MSHR OCC = 2)
NO PREFETCH REQUEST BECAUSE PREFETCH SCORE 12 IS NOT GREATER THAN 20 (MSHR OCC = 2)
NO PREFETCH REQUEST BECAUSE PREFETCH SCORE 12 IS NOT GREATER THAN 20 (MSHR OCC = 2)
NO PREFETCH REQUEST BECAUSE PREFETCH SCORE 12 IS NOT GREATER THAN 20 (MSHR OCC = 2)
NO PREFETCH REQUEST BECAUSE PREFETCH SCORE 12 IS NOT GREATER THAN 20 (MSHR OCC = 2)
NO PREFETCH REQUEST BECAUSE PREFETCH SCORE 12 IS NOT GREATER THAN 20 (MSHR OCC = 2)
CHANGING MSHR THRESHOLD FROM 2 TO 3
NO PREFETCH REQUEST BECAUSE PREFETCH SCORE 12 IS NOT GREATER THAN 20 (MSHR OCC = 3)
NO PREFETCH REQUEST BECAUSE PREFETCH SCORE 12 IS NOT GREATER THAN 20 (MSHR OCC = 6)
NO PREFETCH REQUEST BECAUSE PREFETCH SCORE 12 IS NOT GREATER THAN 20 (MSHR OCC = 6)
NO PREFETCH REQUEST BECAUSE PREFETCH SCORE 12 IS NOT GREATER THAN 20 (MSHR OCC = 6)
NO PREFETCH REQUEST BECAUSE PREFETCH SCORE 12 IS NOT GREATER THAN 20 (MSHR OCC = 6)
NO PREFETCH REQUEST BECAUSE PREFETCH SCORE 12 IS NOT GREATER THAN 20 (MSHR OCC = 6)
NO PREFETCH REQUEST BECAUSE PREFETCH SCORE 12 IS NOT GREATER THAN 20 (MSHR OCC = 6)
NO PREFETCH REQUEST BECAUSE PREFETCH SCORE 12 IS NOT GREATER THAN 20 (MSHR OCC = 6)
NO PREFETCH REQUEST BECAUSE PREFETCH SCORE 12 IS NOT GREATER THAN 20 (MSHR OCC = 6)
NO PREFETCH REQUEST BECAUSE PREFETCH SCORE 12 IS NOT GREATER THAN 20 (MSHR OCC = 6)
CHANGING MSHR THRESHOLD FROM 3 TO 5
CHANGING MSHR THRESHOLD FROM 5 TO 6
CHANGING MSHR THRESHOLD FROM 6 TO 8
CHANGING MSHR THRESHOLD FROM 8 TO 10
CHANGING MSHR THRESHOLD FROM 10 TO 11
CHANGING MSHR THRESHOLD FROM 11 TO 13
CHANGING MSHR THRESHOLD FROM 13 TO 15
CHANGING MSHR THRESHOLD FROM 15 TO 16
CHANGING MSHR THRESHOLD FROM 16 TO 18
CHANGING MSHR THRESHOLD FROM 18 TO 19
CHANGING MSHR THRESHOLD FROM 19 TO 21
CHANGING MSHR THRESHOLD FROM 21 TO 23
CHANGING MSHR THRESHOLD FROM 23 TO 24
CHANGING MSHR THRESHOLD FROM 24 TO 26
CHANGING MSHR THRESHOLD FROM 26 TO 28
OFFSET CHANGED FROM 11 TO 1
OFFSET CHANGED FROM 1 TO 8
NO PREFETCH REQUEST BECAUSE PREFETCH SCORE 15 IS NOT GREATER THAN 20 (MSHR OCC = 28)
NO PREFETCH REQUEST BECAUSE PREFETCH SCORE 15 IS NOT GREATER THAN 20 (MSHR OCC = 28)
NO PREFETCH REQUEST BECAUSE PREFETCH SCORE 15 IS NOT GREATER THAN 20 (MSHR OCC = 28)
OFFSET CHANGED FROM 8 TO 1
CHANGING MSHR THRESHOLD FROM 28 TO 26
CHANGING MSHR THRESHOLD FROM 26 TO 24
CHANGING MSHR THRESHOLD FROM 24 TO 23
CHANGING MSHR THRESHOLD FROM 23 TO 21
CHANGING MSHR THRESHOLD FROM 21 TO 19
CHANGING MSHR THRESHOLD FROM 19 TO 18
CHANGING MSHR THRESHOLD FROM 18 TO 16
CHANGING MSHR THRESHOLD FROM 16 TO 15
CHANGING MSHR THRESHOLD FROM 15 TO 13
CHANGING MSHR THRESHOLD FROM 13 TO 11
CHANGING MSHR THRESHOLD FROM 11 TO 10
CHANGING MSHR THRESHOLD FROM 10 TO 8
CHANGING MSHR THRESHOLD FROM 8 TO 6
NO PREFETCH REQUEST BECAUSE PREFETCH SCORE 20 IS NOT GREATER THAN 20 (MSHR OCC = 9)
CHANGING MSHR THRESHOLD FROM 6 TO 5
NO PREFETCH REQUEST BECAUSE PREFETCH SCORE 20 IS NOT GREATER THAN 20 (MSHR OCC = 9)
CHANGING MSHR THRESHOLD FROM 5 TO 3
CHANGING MSHR THRESHOLD FROM 3 TO 2
NO PREFETCH REQUEST BECAUSE PREFETCH SCORE 20 IS NOT GREATER THAN 20 (MSHR OCC = 9)
NO PREFETCH REQUEST BECAUSE PREFETCH SCORE 20 IS NOT GREATER THAN 20 (MSHR OCC = 9)
NO PREFETCH REQUEST BECAUSE PREFETCH SCORE 20 IS NOT GREATER THAN 20 (MSHR OCC = 9)
NO PREFETCH REQUEST BECAUSE PREFETCH SCORE 20 IS NOT GREATER THAN 20 (MSHR OCC = 2)
NO PREFETCH REQUEST BECAUSE PREFETCH SCORE 20 IS NOT GREATER THAN 20 (MSHR OCC = 2)
NO PREFETCH REQUEST BECAUSE PREFETCH SCORE 20 IS NOT GREATER THAN 20 (MSHR OCC = 2)
NO PREFETCH REQUEST BECAUSE PREFETCH SCORE 20 IS NOT GREATER THAN 20 (MSHR OCC = 2)
NO PREFETCH REQUEST BECAUSE PREFETCH SCORE 20 IS NOT GREATER THAN 20 (MSHR OCC = 2)
NO PREFETCH REQUEST BECAUSE PREFETCH SCORE 20 IS NOT GREATER THAN 20 (MSHR OCC = 2)
NO PREFETCH REQUEST BECAUSE PREFETCH SCORE 20 IS NOT GREATER THAN 20 (MSHR OCC = 2)
NO PREFETCH REQUEST BECAUSE PREFETCH SCORE 20 IS NOT GREATER THAN 20 (MSHR OCC = 2)
NO PREFETCH REQUEST BECAUSE PREFETCH SCORE 20 IS NOT GREATER THAN 20 (MSHR OCC = 2)
NO PREFETCH REQUEST BECAUSE PREFETCH SCORE 20 IS NOT GREATER THAN 20 (MSHR OCC = 2)
NO PREFETCH REQUEST BECAUSE PREFETCH SCORE 20 IS NOT GREATER THAN 20 (MSHR OCC = 2)
NO PREFETCH REQUEST BECAUSE PREFETCH SCORE 20 IS NOT GREATER THAN 20 (MSHR OCC = 2)
NO PREFETCH REQUEST BECAUSE PREFETCH SCORE 20 IS NOT GREATER THAN 20 (MSHR OCC = 2)
NO PREFETCH REQUEST BECAUSE PREFETCH SCORE 20 IS NOT GREATER THAN 20 (MSHR OCC = 2)
NO PREFETCH REQUEST BECAUSE PREFETCH SCORE 20 IS NOT GREATER THAN 20 (MSHR OCC = 2)
NO PREFETCH REQUEST BECAUSE PREFETCH SCORE 20 IS NOT GREATER THAN 20 (MSHR OCC = 2)
NO PREFETCH REQUEST BECAUSE PREFETCH SCORE 20 IS NOT GREATER THAN 20 (MSHR OCC = 2)
NO PREFETCH REQUEST BECAUSE PREFETCH SCORE 20 IS NOT GREATER THAN 20 (MSHR OCC = 2)
NO PREFETCH REQUEST BECAUSE PREFETCH SCORE 20 IS NOT GREATER THAN 20 (MSHR OCC = 2)
NO PREFETCH REQUEST BECAUSE PREFETCH SCORE 20 IS NOT GREATER THAN 20 (MSHR OCC = 2)
NO PREFETCH REQUEST BECAUSE PREFETCH SCORE 20 IS NOT GREATER THAN 20 (MSHR OCC = 3)
NO PREFETCH REQUEST BECAUSE PREFETCH SCORE 20 IS NOT GREATER THAN 20 (MSHR OCC = 2)
NO PREFETCH REQUEST BECAUSE PREFETCH SCORE 20 IS NOT GREATER THAN 20 (MSHR OCC = 2)
NO PREFETCH REQUEST BECAUSE PREFETCH SCORE 20 IS NOT GREATER THAN 20 (MSHR OCC = 2)
NO PREFETCH REQUEST BECAUSE PREFETCH SCORE 20 IS NOT GREATER THAN 20 (MSHR OCC = 2)
NO PREFETCH REQUEST BECAUSE PREFETCH SCORE 20 IS NOT GREATER THAN 20 (MSHR OCC = 2)
NO PREFETCH REQUEST BECAUSE PREFETCH SCORE 20 IS NOT GREATER THAN 20 (MSHR OCC = 2)
NO PREFETCH REQUEST BECAUSE PREFETCH SCORE 20 IS NOT GREATER THAN 20 (MSHR OCC = 2)
NO PREFETCH REQUEST BECAUSE PREFETCH SCORE 20 IS NOT GREATER THAN 20 (MSHR OCC = 2)
NO PREFETCH REQUEST BECAUSE PREFETCH SCORE 20 IS NOT GREATER THAN 20 (MSHR OCC = 2)
NO PREFETCH REQUEST BECAUSE PREFETCH SCORE 20 IS NOT GREATER THAN 20 (MSHR OCC = 2)
CHANGING MSHR THRESHOLD FROM 2 TO 3
CHANGING MSHR THRESHOLD FROM 3 TO 5
CHANGING MSHR THRESHOLD FROM 5 TO 6
CHANGING MSHR THRESHOLD FROM 6 TO 8
CHANGING MSHR THRESHOLD FROM 8 TO 10
CHANGING MSHR THRESHOLD FROM 10 TO 11
CHANGING MSHR THRESHOLD FROM 11 TO 13
NO PREFETCH REQUEST BECAUSE PREFETCH SCORE 20 IS NOT GREATER THAN 20 (MSHR OCC = 16)
NO PREFETCH REQUEST BECAUSE PREFETCH SCORE 20 IS NOT GREATER THAN 20 (MSHR OCC = 16)
NO PREFETCH REQUEST BECAUSE PREFETCH SCORE 20 IS NOT GREATER THAN 20 (MSHR OCC = 16)
NO PREFETCH REQUEST BECAUSE PREFETCH SCORE 20 IS NOT GREATER THAN 20 (MSHR OCC = 13)
NO PREFETCH REQUEST BECAUSE PREFETCH SCORE 20 IS NOT GREATER THAN 20 (MSHR OCC = 13)
CHANGING MSHR THRESHOLD FROM 13 TO 15
CHANGING MSHR THRESHOLD FROM 15 TO 16
CHANGING MSHR THRESHOLD FROM 16 TO 18
CHANGING MSHR THRESHOLD FROM 18 TO 19
CHANGING MSHR THRESHOLD FROM 19 TO 21
CHANGING MSHR THRESHOLD FROM 21 TO 23
CHANGING MSHR THRESHOLD FROM 23 TO 24
CHANGING MSHR THRESHOLD FROM 24 TO 26
CHANGING MSHR THRESHOLD FROM 26 TO 28
OFFSET CHANGED FROM 1 TO 10
CHANGING MSHR THRESHOLD FROM 28 TO 26
CHANGING MSHR THRESHOLD FROM 26 TO 24
CHANGING MSHR THRESHOLD FROM 24 TO 23
CHANGING MSHR THRESHOLD FROM 23 TO 21
CHANGING MSHR THRESHOLD FROM 21 TO 19
CHANGING MSHR THRESHOLD FROM 19 TO 18
CHANGING MSHR THRESHOLD FROM 18 TO 16
CHANGING MSHR THRESHOLD FROM 16 TO 15
CHANGING MSHR THRESHOLD FROM 15 TO 13
CHANGING MSHR THRESHOLD FROM 13 TO 11
CHANGING MSHR THRESHOLD FROM 11 TO 10
CHANGING MSHR THRESHOLD FROM 10 TO 8
NO PREFETCH REQUEST BECAUSE PREFETCH SCORE 14 IS NOT GREATER THAN 20 (MSHR OCC = 9)
CHANGING MSHR THRESHOLD FROM 8 TO 6
NO PREFETCH REQUEST BECAUSE PREFETCH SCORE 14 IS NOT GREATER THAN 20 (MSHR OCC = 9)
CHANGING MSHR THRESHOLD FROM 6 TO 5
NO PREFETCH REQUEST BECAUSE PREFETCH SCORE 14 IS NOT GREATER THAN 20 (MSHR OCC = 9)
CHANGING MSHR THRESHOLD FROM 5 TO 3
NO PREFETCH REQUEST BECAUSE PREFETCH SCORE 14 IS NOT GREATER THAN 20 (MSHR OCC = 9)
NO PREFETCH REQUEST BECAUSE PREFETCH SCORE 14 IS NOT GREATER THAN 20 (MSHR OCC = 9)
CHANGING MSHR THRESHOLD FROM 3 TO 2
NO PREFETCH REQUEST BECAUSE PREFETCH SCORE 14 IS NOT GREATER THAN 20 (MSHR OCC = 9)
NO PREFETCH REQUEST BECAUSE PREFETCH SCORE 14 IS NOT GREATER THAN 20 (MSHR OCC = 9)
NO PREFETCH REQUEST BECAUSE PREFETCH SCORE 14 IS NOT GREATER THAN 20 (MSHR OCC = 10)
NO PREFETCH REQUEST BECAUSE PREFETCH SCORE 14 IS NOT GREATER THAN 20 (MSHR OCC = 10)
NO PREFETCH REQUEST BECAUSE PREFETCH SCORE 14 IS NOT GREATER THAN 20 (MSHR OCC = 10)
NO PREFETCH REQUEST BECAUSE PREFETCH SCORE 14 IS NOT GREATER THAN 20 (MSHR OCC = 10)
NO PREFETCH REQUEST BECAUSE PREFETCH SCORE 14 IS NOT GREATER THAN 20 (MSHR OCC = 10)
NO PREFETCH REQUEST BECAUSE PREFETCH SCORE 14 IS NOT GREATER THAN 20 (MSHR OCC = 10)
NO PREFETCH REQUEST BECAUSE PREFETCH SCORE 14 IS NOT GREATER THAN 20 (MSHR OCC = 9)
NO PREFETCH REQUEST BECAUSE PREFETCH SCORE 14 IS NOT GREATER THAN 20 (MSHR OCC = 9)
NO PREFETCH REQUEST BECAUSE PREFETCH SCORE 14 IS NOT GREATER THAN 20 (MSHR OCC = 10)
NO PREFETCH REQUEST BECAUSE PREFETCH SCORE 14 IS NOT GREATER THAN 20 (MSHR OCC = 10)
NO PREFETCH REQUEST BECAUSE PREFETCH SCORE 14 IS NOT GREATER THAN 20 (MSHR OCC = 10)
NO PREFETCH REQUEST BECAUSE PREFETCH SCORE 14 IS NOT GREATER THAN 20 (MSHR OCC = 12)
NO PREFETCH REQUEST BECAUSE PREFETCH SCORE 14 IS NOT GREATER THAN 20 (MSHR OCC = 12)
NO PREFETCH REQUEST BECAUSE PREFETCH SCORE 14 IS NOT GREATER THAN 20 (MSHR OCC = 10)
NO PREFETCH REQUEST BECAUSE PREFETCH SCORE 14 IS NOT GREATER THAN 20 (MSHR OCC = 10)
NO PREFETCH REQUEST BECAUSE PREFETCH SCORE 14 IS NOT GREATER THAN 20 (MSHR OCC = 11)
[...]
NO PREFETCH REQUEST BECAUSE PREFETCH SCORE 12 IS NOT GREATER THAN 20 (MSHR OCC = 3)
NO PREFETCH REQUEST BECAUSE PREFETCH SCORE 12 IS NOT GREATER THAN 20 (MSHR OCC = 4)
NO PREFETCH REQUEST BECAUSE PREFETCH SCORE 12 IS NOT GREATER THAN 20 (MSHR OCC = 4)
NO PREFETCH REQUEST BECAUSE PREFETCH SCORE 12 IS NOT GREATER THAN 20 (MSHR OCC = 4)
NO PREFETCH REQUEST BECAUSE PREFETCH SCORE 12 IS NOT GREATER THAN 20 (MSHR OCC = 2)
NO PREFETCH REQUEST BECAUSE PREFETCH SCORE 12 IS NOT GREATER THAN 20 (MSHR OCC = 2)
NO PREFETCH REQUEST BECAUSE PREFETCH SCORE 12 IS NOT GREATER THAN 20 (MSHR OCC = 2)
NO PREFETCH REQUEST BECAUSE PREFETCH SCORE 12 IS NOT GREATER THAN 20 (MSHR OCC = 2)
NO PREFETCH REQUEST BECAUSE PREFETCH SCORE 12 IS NOT GREATER THAN 20 (MSHR OCC = 2)
NO PREFETCH REQUEST BECAUSE PREFETCH SCORE 12 IS NOT GREATER THAN 20 (MSHR OCC = 2)
NO PREFETCH REQUEST BECAUSE PREFETCH SCORE 12 IS NOT GREATER THAN 20 (MSHR OCC = 2)
NO PREFETCH REQUEST BECAUSE PREFETCH SCORE 12 IS NOT GREATER THAN 20 (MSHR OCC = 2)
NO PREFETCH REQUEST BECAUSE PREFETCH SCORE 12 IS NOT GREATER THAN 20 (MSHR OCC = 2)
NO PREFETCH REQUEST BECAUSE PREFETCH SCORE 12 IS NOT GREATER THAN 20 (MSHR OCC = 3)
NO PREFETCH REQUEST BECAUSE PREFETCH SCORE 12 IS NOT GREATER THAN 20 (MSHR OCC = 3)
NO PREFETCH REQUEST BECAUSE PREFETCH SCORE 12 IS NOT GREATER THAN 20 (MSHR OCC = 3)
NO PREFETCH REQUEST BECAUSE PREFETCH SCORE 12 IS NOT GREATER THAN 20 (MSHR OCC = 3)
NO PREFETCH REQUEST BECAUSE PREFETCH SCORE 12 IS NOT GREATER THAN 20 (MSHR OCC = 3)
NO PREFETCH REQUEST BECAUSE PREFETCH SCORE 12 IS NOT GREATER THAN 20 (MSHR OCC = 2)
NO PREFETCH REQUEST BECAUSE PREFETCH SCORE 12 IS NOT GREATER THAN 20 (MSHR OCC = 2)
NO PREFETCH REQUEST BECAUSE PREFETCH SCORE 12 IS NOT GREATER THAN 20 (MSHR OCC = 2)
NO PREFETCH REQUEST BECAUSE PREFETCH SCORE 12 IS NOT GREATER THAN 20 (MSHR OCC = 2)
NO PREFETCH REQUEST BECAUSE PREFETCH SCORE 12 IS NOT GREATER THAN 20 (MSHR OCC = 2)
NO PREFETCH REQUEST BECAUSE PREFETCH SCORE 12 IS NOT GREATER THAN 20 (MSHR OCC = 2)
NO PREFETCH REQUEST BECAUSE PREFETCH SCORE 12 IS NOT GREATER THAN 20 (MSHR OCC = 14)
NO PREFETCH REQUEST BECAUSE PREFETCH SCORE 12 IS NOT GREATER THAN 20 (MSHR OCC = 13)
NO PREFETCH REQUEST BECAUSE PREFETCH SCORE 12 IS NOT GREATER THAN 20 (MSHR OCC = 12)
NO PREFETCH REQUEST BECAUSE PREFETCH SCORE 12 IS NOT GREATER THAN 20 (MSHR OCC = 9)
NO PREFETCH REQUEST BECAUSE PREFETCH SCORE 12 IS NOT GREATER THAN 20 (MSHR OCC = 9)
CHANGING MSHR THRESHOLD FROM 2 TO 3
CHANGING MSHR THRESHOLD FROM 3 TO 5
CHANGING MSHR THRESHOLD FROM 5 TO 6
CHANGING MSHR THRESHOLD FROM 6 TO 8
CHANGING MSHR THRESHOLD FROM 8 TO 10
CHANGING MSHR THRESHOLD FROM 10 TO 11
CHANGING MSHR THRESHOLD FROM 11 TO 13
CHANGING MSHR THRESHOLD FROM 13 TO 15
CHANGING MSHR THRESHOLD FROM 15 TO 16
CHANGING MSHR THRESHOLD FROM 16 TO 18
CHANGING MSHR THRESHOLD FROM 18 TO 19
CHANGING MSHR THRESHOLD FROM 19 TO 21
CHANGING MSHR THRESHOLD FROM 21 TO 23
CHANGING MSHR THRESHOLD FROM 23 TO 24
CHANGING MSHR THRESHOLD FROM 24 TO 26
CHANGING MSHR THRESHOLD FROM 26 TO 28
OFFSET CHANGED FROM 1 TO 1
CHANGING MSHR THRESHOLD FROM 28 TO 26
CHANGING MSHR THRESHOLD FROM 26 TO 24
CHANGING MSHR THRESHOLD FROM 24 TO 23
CHANGING MSHR THRESHOLD FROM 23 TO 21
CHANGING MSHR THRESHOLD FROM 21 TO 19
CHANGING MSHR THRESHOLD FROM 19 TO 18
CHANGING MSHR THRESHOLD FROM 18 TO 16
CHANGING MSHR THRESHOLD FROM 16 TO 15
CHANGING MSHR THRESHOLD FROM 15 TO 13
CHANGING MSHR THRESHOLD FROM 13 TO 11
CHANGING MSHR THRESHOLD FROM 11 TO 10
CHANGING MSHR THRESHOLD FROM 10 TO 8
CHANGING MSHR THRESHOLD FROM 8 TO 6
CHANGING MSHR THRESHOLD FROM 6 TO 5
CHANGING MSHR THRESHOLD FROM 5 TO 3
CHANGING MSHR THRESHOLD FROM 3 TO 2
NO PREFETCH REQUEST BECAUSE PREFETCH SCORE 13 IS NOT GREATER THAN 20 (MSHR OCC = 4)
NO PREFETCH REQUEST BECAUSE PREFETCH SCORE 13 IS NOT GREATER THAN 20 (MSHR OCC = 4)
NO PREFETCH REQUEST BECAUSE PREFETCH SCORE 13 IS NOT GREATER THAN 20 (MSHR OCC = 4)
NO PREFETCH REQUEST BECAUSE PREFETCH SCORE 13 IS NOT GREATER THAN 20 (MSHR OCC = 4)
NO PREFETCH REQUEST BECAUSE PREFETCH SCORE 13 IS NOT GREATER THAN 20 (MSHR OCC = 4)
NO PREFETCH REQUEST BECAUSE PREFETCH SCORE 13 IS NOT GREATER THAN 20 (MSHR OCC = 4)
NO PREFETCH REQUEST BECAUSE PREFETCH SCORE 13 IS NOT GREATER THAN 20 (MSHR OCC = 4)
NO PREFETCH REQUEST BECAUSE PREFETCH SCORE 13 IS NOT GREATER THAN 20 (MSHR OCC = 4)
NO PREFETCH REQUEST BECAUSE PREFETCH SCORE 13 IS NOT GREATER THAN 20 (MSHR OCC = 8)
NO PREFETCH REQUEST BECAUSE PREFETCH SCORE 13 IS NOT GREATER THAN 20 (MSHR OCC = 9)
NO PREFETCH REQUEST BECAUSE PREFETCH SCORE 13 IS NOT GREATER THAN 20 (MSHR OCC = 9)
CHANGING MSHR THRESHOLD FROM 2 TO 3
NO PREFETCH REQUEST BECAUSE PREFETCH SCORE 13 IS NOT GREATER THAN 20 (MSHR OCC = 13)
NO PREFETCH REQUEST BECAUSE PREFETCH SCORE 13 IS NOT GREATER THAN 20 (MSHR OCC = 13)
CHANGING MSHR THRESHOLD FROM 3 TO 5
CHANGING MSHR THRESHOLD FROM 5 TO 6
CHANGING MSHR THRESHOLD FROM 6 TO 8
CHANGING MSHR THRESHOLD FROM 8 TO 10
CHANGING MSHR THRESHOLD FROM 10 TO 11
CHANGING MSHR THRESHOLD FROM 11 TO 13
CHANGING MSHR THRESHOLD FROM 13 TO 15
CHANGING MSHR THRESHOLD FROM 15 TO 16
CHANGING MSHR THRESHOLD FROM 16 TO 18
CHANGING MSHR THRESHOLD FROM 18 TO 19
CHANGING MSHR THRESHOLD FROM 19 TO 21
CHANGING MSHR THRESHOLD FROM 21 TO 23
CHANGING MSHR THRESHOLD FROM 23 TO 24
CHANGING MSHR THRESHOLD FROM 24 TO 26
CHANGING MSHR THRESHOLD FROM 26 TO 28
OFFSET CHANGED FROM 1 TO 1
CHANGING MSHR THRESHOLD FROM 28 TO 26
CHANGING MSHR THRESHOLD FROM 26 TO 24
CHANGING MSHR THRESHOLD FROM 24 TO 23
CHANGING MSHR THRESHOLD FROM 23 TO 21
CHANGING MSHR THRESHOLD FROM 21 TO 19
CHANGING MSHR THRESHOLD FROM 19 TO 18
CHANGING MSHR THRESHOLD FROM 18 TO 16
CHANGING MSHR THRESHOLD FROM 16 TO 15
CHANGING MSHR THRESHOLD FROM 15 TO 13
CHANGING MSHR THRESHOLD FROM 13 TO 11
CHANGING MSHR THRESHOLD FROM 11 TO 10
CHANGING MSHR THRESHOLD FROM 10 TO 8
CHANGING MSHR THRESHOLD FROM 8 TO 6
CHANGING MSHR THRESHOLD FROM 6 TO 5
CHANGING MSHR THRESHOLD FROM 5 TO 3
CHANGING MSHR THRESHOLD FROM 3 TO 2
CHANGING MSHR THRESHOLD FROM 2 TO 3
CHANGING MSHR THRESHOLD FROM 3 TO 5
CHANGING MSHR THRESHOLD FROM 5 TO 6
CHANGING MSHR THRESHOLD FROM 6 TO 8
CHANGING MSHR THRESHOLD FROM 8 TO 10
CHANGING MSHR THRESHOLD FROM 10 TO 11
CHANGING MSHR THRESHOLD FROM 11 TO 13
CHANGING MSHR THRESHOLD FROM 13 TO 15
CHANGING MSHR THRESHOLD FROM 15 TO 16
CHANGING MSHR THRESHOLD FROM 16 TO 18
CHANGING MSHR THRESHOLD FROM 18 TO 19
CHANGING MSHR THRESHOLD FROM 19 TO 21
CHANGING MSHR THRESHOLD FROM 21 TO 23
CHANGING MSHR THRESHOLD FROM 23 TO 24
CHANGING MSHR THRESHOLD FROM 24 TO 26
CHANGING MSHR THRESHOLD FROM 26 TO 28
Heartbeat CPU 0 instructions: 70000000 cycles: 29007276 heartbeat IPC: 1.62229 cumulative IPC: 1.60972 (Simulation time: 0 hr 2 min 31 sec) 
OFFSET CHANGED FROM 1 TO 11
NO PREFETCH REQUEST BECAUSE PREFETCH SCORE 11 IS NOT GREATER THAN 20 (MSHR OCC = 28)
NO PREFETCH REQUEST BECAUSE PREFETCH SCORE 11 IS NOT GREATER THAN 20 (MSHR OCC = 30)
NO PREFETCH REQUEST BECAUSE PREFETCH SCORE 11 IS NOT GREATER THAN 20 (MSHR OCC = 28)
NO PREFETCH REQUEST BECAUSE PREFETCH SCORE 11 IS NOT GREATER THAN 20 (MSHR OCC = 29)
OFFSET CHANGED FROM 11 TO 1
OFFSET CHANGED FROM 1 TO 1
OFFSET CHANGED FROM 1 TO 1
OFFSET CHANGED FROM 1 TO 1
OFFSET CHANGED FROM 1 TO 1
OFFSET CHANGED FROM 1 TO 1
OFFSET CHANGED FROM 1 TO 1
OFFSET CHANGED FROM 1 TO 1
NO PREFETCH REQUEST BECAUSE PREFETCH SCORE 8 IS NOT GREATER THAN 20 (MSHR OCC = 28)
OFFSET CHANGED FROM 1 TO 1
OFFSET CHANGED FROM 1 TO 1
Heartbeat CPU 0 instructions: 80000000 cycles: 35148038 heartbeat IPC: 1.62846 cumulative IPC: 1.61592 (Simulation time: 0 hr 2 min 47 sec) 
OFFSET CHANGED FROM 1 TO 2
NO PREFETCH REQUEST BECAUSE PREFETCH SCORE 17 IS NOT GREATER THAN 20 (MSHR OCC = 28)
NO PREFETCH REQUEST BECAUSE PREFETCH SCORE 17 IS NOT GREATER THAN 20 (MSHR OCC = 29)
NO PREFETCH REQUEST BECAUSE PREFETCH SCORE 17 IS NOT GREATER THAN 20 (MSHR OCC = 29)
OFFSET CHANGED FROM 2 TO 1
OFFSET CHANGED FROM 1 TO 1
CHANGING MSHR THRESHOLD FROM 28 TO 26
CHANGING MSHR THRESHOLD FROM 26 TO 24
CHANGING MSHR THRESHOLD FROM 24 TO 23
CHANGING MSHR THRESHOLD FROM 23 TO 21
CHANGING MSHR THRESHOLD FROM 21 TO 19
CHANGING MSHR THRESHOLD FROM 19 TO 18
CHANGING MSHR THRESHOLD FROM 18 TO 16
CHANGING MSHR THRESHOLD FROM 16 TO 15
CHANGING MSHR THRESHOLD FROM 15 TO 13
CHANGING MSHR THRESHOLD FROM 13 TO 11
CHANGING MSHR THRESHOLD FROM 11 TO 10
CHANGING MSHR THRESHOLD FROM 10 TO 8
CHANGING MSHR THRESHOLD FROM 8 TO 6
CHANGING MSHR THRESHOLD FROM 6 TO 5
CHANGING MSHR THRESHOLD FROM 5 TO 3
CHANGING MSHR THRESHOLD FROM 3 TO 2
NO PREFETCH REQUEST BECAUSE PREFETCH SCORE 14 IS NOT GREATER THAN 20 (MSHR OCC = 2)
NO PREFETCH REQUEST BECAUSE PREFETCH SCORE 14 IS NOT GREATER THAN 20 (MSHR OCC = 3)
NO PREFETCH REQUEST BECAUSE PREFETCH SCORE 14 IS NOT GREATER THAN 20 (MSHR OCC = 2)
NO PREFETCH REQUEST BECAUSE PREFETCH SCORE 14 IS NOT GREATER THAN 20 (MSHR OCC = 2)
NO PREFETCH REQUEST BECAUSE PREFETCH SCORE 14 IS NOT GREATER THAN 20 (MSHR OCC = 2)
NO PREFETCH REQUEST BECAUSE PREFETCH SCORE 14 IS NOT GREATER THAN 20 (MSHR OCC = 2)
NO PREFETCH REQUEST BECAUSE PREFETCH SCORE 14 IS NOT GREATER THAN 20 (MSHR OCC = 2)
NO PREFETCH REQUEST BECAUSE PREFETCH SCORE 14 IS NOT GREATER THAN 20 (MSHR OCC = 2)
NO PREFETCH REQUEST BECAUSE PREFETCH SCORE 14 IS NOT GREATER THAN 20 (MSHR OCC = 3)
NO PREFETCH REQUEST BECAUSE PREFETCH SCORE 14 IS NOT GREATER THAN 20 (MSHR OCC = 3)
NO PREFETCH REQUEST BECAUSE PREFETCH SCORE 14 IS NOT GREATER THAN 20 (MSHR OCC = 2)
NO PREFETCH REQUEST BECAUSE PREFETCH SCORE 14 IS NOT GREATER THAN 20 (MSHR OCC = 3)
NO PREFETCH REQUEST BECAUSE PREFETCH SCORE 14 IS NOT GREATER THAN 20 (MSHR OCC = 3)
NO PREFETCH REQUEST BECAUSE PREFETCH SCORE 14 IS NOT GREATER THAN 20 (MSHR OCC = 2)
NO PREFETCH REQUEST BECAUSE PREFETCH SCORE 14 IS NOT GREATER THAN 20 (MSHR OCC = 2)
NO PREFETCH REQUEST BECAUSE PREFETCH SCORE 14 IS NOT GREATER THAN 20 (MSHR OCC = 2)
NO PREFETCH REQUEST BECAUSE PREFETCH SCORE 14 IS NOT GREATER THAN 20 (MSHR OCC = 3)
NO PREFETCH REQUEST BECAUSE PREFETCH SCORE 14 IS NOT GREATER THAN 20 (MSHR OCC = 4)
NO PREFETCH REQUEST BECAUSE PREFETCH SCORE 14 IS NOT GREATER THAN 20 (MSHR OCC = 2)
CHANGING MSHR THRESHOLD FROM 2 TO 3
CHANGING MSHR THRESHOLD FROM 3 TO 5
CHANGING MSHR THRESHOLD FROM 5 TO 6
CHANGING MSHR THRESHOLD FROM 6 TO 8
CHANGING MSHR THRESHOLD FROM 8 TO 10
CHANGING MSHR THRESHOLD FROM 10 TO 11
NO PREFETCH REQUEST BECAUSE PREFETCH SCORE 14 IS NOT GREATER THAN 20 (MSHR OCC = 12)
NO PREFETCH REQUEST BECAUSE PREFETCH SCORE 14 IS NOT GREATER THAN 20 (MSHR OCC = 12)
NO PREFETCH REQUEST BECAUSE PREFETCH SCORE 14 IS NOT GREATER THAN 20 (MSHR OCC = 15)
CHANGING MSHR THRESHOLD FROM 11 TO 13
CHANGING MSHR THRESHOLD FROM 13 TO 15
CHANGING MSHR THRESHOLD FROM 15 TO 16
CHANGING MSHR THRESHOLD FROM 16 TO 18
CHANGING MSHR THRESHOLD FROM 18 TO 19
CHANGING MSHR THRESHOLD FROM 19 TO 21
CHANGING MSHR THRESHOLD FROM 21 TO 23
CHANGING MSHR THRESHOLD FROM 23 TO 24
CHANGING MSHR THRESHOLD FROM 24 TO 26
CHANGING MSHR THRESHOLD FROM 26 TO 28
OFFSET CHANGED FROM 1 TO 1
OFFSET CHANGED FROM 1 TO 1
PREFETCHING INTO L2 w/ PREFETCH SCORE 25 (MSHR OCC = 28)
OFFSET CHANGED FROM 1 TO 1
OFFSET CHANGED FROM 1 TO 1
OFFSET CHANGED FROM 1 TO 8
OFFSET CHANGED FROM 8 TO 11
OFFSET CHANGED FROM 11 TO 8
OFFSET CHANGED FROM 8 TO 10
OFFSET CHANGED FROM 10 TO 11
OFFSET CHANGED FROM 11 TO 9
OFFSET CHANGED FROM 9 TO 11
OFFSET CHANGED FROM 11 TO 12
OFFSET CHANGED FROM 12 TO 9
OFFSET CHANGED FROM 9 TO 10
OFFSET CHANGED FROM 10 TO 11
OFFSET CHANGED FROM 11 TO 11
OFFSET CHANGED FROM 11 TO 11
OFFSET CHANGED FROM 11 TO 9
OFFSET CHANGED FROM 9 TO 8
PREFETCHING INTO L2 w/ PREFETCH SCORE 31 (MSHR OCC = 28)
PREFETCHING INTO L2 w/ PREFETCH SCORE 31 (MSHR OCC = 28)
OFFSET CHANGED FROM 8 TO 8
OFFSET CHANGED FROM 8 TO 9
OFFSET CHANGED FROM 9 TO 8
OFFSET CHANGED FROM 8 TO 7
OFFSET CHANGED FROM 7 TO 7
OFFSET CHANGED FROM 7 TO 7
OFFSET CHANGED FROM 7 TO 8
OFFSET CHANGED FROM 8 TO 9
OFFSET CHANGED FROM 9 TO 11
OFFSET CHANGED FROM 11 TO 6
OFFSET CHANGED FROM 6 TO 1
OFFSET CHANGED FROM 1 TO 2
OFFSET CHANGED FROM 2 TO 2
OFFSET CHANGED FROM 2 TO 2
OFFSET CHANGED FROM 2 TO 2
OFFSET CHANGED FROM 2 TO 2
OFFSET CHANGED FROM 2 TO 2
OFFSET CHANGED FROM 2 TO 2
OFFSET CHANGED FROM 2 TO 7
OFFSET CHANGED FROM 7 TO 9
OFFSET CHANGED FROM 9 TO 10
OFFSET CHANGED FROM 10 TO 9
OFFSET CHANGED FROM 9 TO 1
OFFSET CHANGED FROM 1 TO 1
OFFSET CHANGED FROM 1 TO 1
OFFSET CHANGED FROM 1 TO 1
OFFSET CHANGED FROM 1 TO 1
Heartbeat CPU 0 instructions: 90000001 cycles: 44450284 heartbeat IPC: 1.07501 cumulative IPC: 1.43536 (Simulation time: 0 hr 3 min 7 sec) 
OFFSET CHANGED FROM 1 TO 1
OFFSET CHANGED FROM 1 TO 1
OFFSET CHANGED FROM 1 TO 1
OFFSET CHANGED FROM 1 TO 1
OFFSET CHANGED FROM 1 TO 1
OFFSET CHANGED FROM 1 TO 3
OFFSET CHANGED FROM 3 TO 4
OFFSET CHANGED FROM 4 TO 4
OFFSET CHANGED FROM 4 TO 4
OFFSET CHANGED FROM 4 TO 6
OFFSET CHANGED FROM 6 TO 6
OFFSET CHANGED FROM 6 TO 6
Heartbeat CPU 0 instructions: 100000003 cycles: 50255968 heartbeat IPC: 1.72245 cumulative IPC: 1.48486 (Simulation time: 0 hr 3 min 20 sec) 
OFFSET CHANGED FROM 6 TO 6
OFFSET CHANGED FROM 6 TO 5
PREFETCHING INTO L2 w/ PREFETCH SCORE 31 (MSHR OCC = 32)
PREFETCHING INTO L2 w/ PREFETCH SCORE 31 (MSHR OCC = 29)
PREFETCHING INTO L2 w/ PREFETCH SCORE 31 (MSHR OCC = 29)
PREFETCHING INTO L2 w/ PREFETCH SCORE 31 (MSHR OCC = 28)
PREFETCHING INTO L2 w/ PREFETCH SCORE 31 (MSHR OCC = 29)
PREFETCHING INTO L2 w/ PREFETCH SCORE 31 (MSHR OCC = 28)
OFFSET CHANGED FROM 5 TO 1
OFFSET CHANGED FROM 1 TO 1
OFFSET CHANGED FROM 1 TO 1
OFFSET CHANGED FROM 1 TO 1
OFFSET CHANGED FROM 1 TO 1
OFFSET CHANGED FROM 1 TO 1
OFFSET CHANGED FROM 1 TO 1
OFFSET CHANGED FROM 1 TO 1
OFFSET CHANGED FROM 1 TO 1
OFFSET CHANGED FROM 1 TO 1
OFFSET CHANGED FROM 1 TO 1
OFFSET CHANGED FROM 1 TO 1
PREFETCHING INTO L2 w/ PREFETCH SCORE 31 (MSHR OCC = 28)
Heartbeat CPU 0 instructions: 110000000 cycles: 56718119 heartbeat IPC: 1.54747 cumulative IPC: 1.49494 (Simulation time: 0 hr 3 min 33 sec) 
Heartbeat CPU 0 instructions: 120000002 cycles: 63211751 heartbeat IPC: 1.53997 cumulative IPC: 1.50121 (Simulation time: 0 hr 3 min 49 sec) 
OFFSET CHANGED FROM 1 TO -1
Heartbeat CPU 0 instructions: 130000000 cycles: 69610159 heartbeat IPC: 1.56289 cumulative IPC: 1.50865 (Simulation time: 0 hr 4 min 5 sec) 
OFFSET CHANGED FROM -1 TO -1
Heartbeat CPU 0 instructions: 140000001 cycles: 75994477 heartbeat IPC: 1.56634 cumulative IPC: 1.51485 (Simulation time: 0 hr 4 min 21 sec) 
OFFSET CHANGED FROM -1 TO -1
Heartbeat CPU 0 instructions: 150000003 cycles: 82368555 heartbeat IPC: 1.56885 cumulative IPC: 1.52009 (Simulation time: 0 hr 4 min 36 sec) 
OFFSET CHANGED FROM -1 TO 10
Heartbeat CPU 0 instructions: 160000000 cycles: 88776677 heartbeat IPC: 1.56052 cumulative IPC: 1.52367 (Simulation time: 0 hr 4 min 53 sec) 
OFFSET CHANGED FROM 10 TO -1
Heartbeat CPU 0 instructions: 170000000 cycles: 95177020 heartbeat IPC: 1.56242 cumulative IPC: 1.52683 (Simulation time: 0 hr 5 min 9 sec) 
OFFSET CHANGED FROM -1 TO -1
Heartbeat CPU 0 instructions: 180000000 cycles: 101569447 heartbeat IPC: 1.56435 cumulative IPC: 1.52965 (Simulation time: 0 hr 5 min 25 sec) 
OFFSET CHANGED FROM -1 TO -1
Heartbeat CPU 0 instructions: 190000000 cycles: 107960771 heartbeat IPC: 1.56462 cumulative IPC: 1.5321 (Simulation time: 0 hr 5 min 41 sec) 
OFFSET CHANGED FROM -1 TO -1
Heartbeat CPU 0 instructions: 200000000 cycles: 114361216 heartbeat IPC: 1.56239 cumulative IPC: 1.53408 (Simulation time: 0 hr 5 min 58 sec) 
OFFSET CHANGED FROM -1 TO -1
Heartbeat CPU 0 instructions: 210000000 cycles: 120755743 heartbeat IPC: 1.56384 cumulative IPC: 1.53591 (Simulation time: 0 hr 6 min 14 sec) 
OFFSET CHANGED FROM -1 TO -1
Heartbeat CPU 0 instructions: 220000000 cycles: 127147273 heartbeat IPC: 1.56457 cumulative IPC: 1.53756 (Simulation time: 0 hr 6 min 28 sec) 
OFFSET CHANGED FROM -1 TO -12
Heartbeat CPU 0 instructions: 230000000 cycles: 133544295 heartbeat IPC: 1.56323 cumulative IPC: 1.53897 (Simulation time: 0 hr 6 min 43 sec) 
OFFSET CHANGED FROM -12 TO -1
Heartbeat CPU 0 instructions: 240000003 cycles: 139952694 heartbeat IPC: 1.56045 cumulative IPC: 1.54008 (Simulation time: 0 hr 6 min 59 sec) 
Heartbeat CPU 0 instructions: 250000000 cycles: 146340183 heartbeat IPC: 1.56556 cumulative IPC: 1.54134 (Simulation time: 0 hr 7 min 14 sec) 
OFFSET CHANGED FROM -1 TO -1
Heartbeat CPU 0 instructions: 260000001 cycles: 152733010 heartbeat IPC: 1.56425 cumulative IPC: 1.54241 (Simulation time: 0 hr 7 min 30 sec) 
OFFSET CHANGED FROM -1 TO -1
Heartbeat CPU 0 instructions: 270000003 cycles: 159123545 heartbeat IPC: 1.56481 cumulative IPC: 1.54342 (Simulation time: 0 hr 7 min 45 sec) 
OFFSET CHANGED FROM -1 TO 10
Heartbeat CPU 0 instructions: 280000000 cycles: 165521923 heartbeat IPC: 1.5629 cumulative IPC: 1.54425 (Simulation time: 0 hr 8 min 1 sec) 
OFFSET CHANGED FROM 10 TO -1
Heartbeat CPU 0 instructions: 290000003 cycles: 171936180 heartbeat IPC: 1.55903 cumulative IPC: 1.54486 (Simulation time: 0 hr 8 min 17 sec) 
Heartbeat CPU 0 instructions: 300000000 cycles: 178335717 heartbeat IPC: 1.56261 cumulative IPC: 1.54557 (Simulation time: 0 hr 8 min 33 sec) 
Finished CPU 0 instructions: 250000003 cycles: 161752950 cumulative IPC: 1.54557 (Simulation time: 0 hr 8 min 33 sec) 

ChampSim completed all CPUs

Region of Interest Statistics

CPU 0 cumulative IPC: 1.54557 instructions: 250000003 cycles: 161752950
L1D TOTAL     ACCESS:   41416760  HIT:   41088047  MISS:     328713
L1D LOAD      ACCESS:   22526022  HIT:   22281136  MISS:     244886
L1D RFO       ACCESS:   18890738  HIT:   18806911  MISS:      83827
L1D PREFETCH  ACCESS:          0  HIT:          0  MISS:          0
L1D WRITEBACK ACCESS:          0  HIT:          0  MISS:          0
L1D PREFETCH  REQUESTED:          0  ISSUED:          0  USEFUL:          0  USELESS:          0
L1D AVERAGE MISS LATENCY: 99.8723 cycles
L1I TOTAL     ACCESS:   40185706  HIT:   40093395  MISS:      92311
L1I LOAD      ACCESS:   40138374  HIT:   40073727  MISS:      64647
L1I RFO       ACCESS:          0  HIT:          0  MISS:          0
L1I PREFETCH  ACCESS:      47332  HIT:      19668  MISS:      27664
L1I WRITEBACK ACCESS:          0  HIT:          0  MISS:          0
L1I PREFETCH  REQUESTED:      85064  ISSUED:      85064  USEFUL:      20921  USELESS:       6739
L1I AVERAGE MISS LATENCY: 15.5102 cycles
L2C TOTAL     ACCESS:     794622  HIT:     531092  MISS:     263530
L2C LOAD      ACCESS:     302178  HIT:     249094  MISS:      53084
L2C RFO       ACCESS:      83356  HIT:      18819  MISS:      64537
L2C PREFETCH  ACCESS:     307365  HIT:     161633  MISS:     145732
L2C WRITEBACK ACCESS:     101723  HIT:     101546  MISS:        177
L2C PREFETCH  REQUESTED:     321927  ISSUED:     321899  USEFUL:     135325  USELESS:      11020
L2C AVERAGE MISS LATENCY: 199.375 cycles
LLC TOTAL     ACCESS:     347399  HIT:     134198  MISS:     213201
LLC LOAD      ACCESS:      34523  HIT:       9878  MISS:      24645
LLC RFO       ACCESS:      64507  HIT:        157  MISS:      64350
LLC PREFETCH  ACCESS:     164331  HIT:      40344  MISS:     123987
LLC WRITEBACK ACCESS:      84038  HIT:      83819  MISS:        219
LLC PREFETCH  REQUESTED:          0  ISSUED:          0  USEFUL:       1808  USELESS:     115708
LLC AVERAGE MISS LATENCY: 223.849 cycles
Major fault: 0 Minor fault: 4741
CPU 0 L1I next line prefetcher final stats
CPU 0 L2C best offset prefetcher final stats

DRAM Statistics
 CHANNEL 0
 RQ ROW_BUFFER_HIT:      88465  ROW_BUFFER_MISS:     124464
 DBUS_CONGESTED:     124129
 WQ ROW_BUFFER_HIT:      16103  ROW_BUFFER_MISS:      73048  FULL:          0

 AVG_CONGESTED_CYCLE: 6

CPU 0 Branch Prediction Accuracy: 89.991% MPKI: 3.4723 Average ROB Occupancy at Mispredict: 54.4258

Branch types
NOT_BRANCH: 241326746 96.5307%
BRANCH_DIRECT_JUMP: 181905 0.072762%
BRANCH_INDIRECT: 12124 0.0048496%
BRANCH_CONDITIONAL: 6973238 2.7893%
BRANCH_DIRECT_CALL: 366581 0.146632%
BRANCH_INDIRECT_CALL: 386239 0.154496%
BRANCH_RETURN: 752814 0.301126%
BRANCH_OTHER: 0 0%

