
*** ChampSim Multicore Out-of-Order Simulator ***

Warmup Instructions: 50000000
Simulation Instructions: 250000000
Number of CPUs: 1
LLC sets: 2048
LLC ways: 16
Off-chip DRAM Size: 4096 MB Channels: 1 Width: 64-bit Data Rate: 3200 MT/s

CPU 0 runs /home/wezelis2/ECE511_Project/ChampSim/dpc3_traces/641.leela_s-334B.champsimtrace.xz
CPU 0 Bimodal branch predictor
CPU 0 L1I next line prefetcher
INIT BEST RECENT REQUEST TABLE MODULE
INIT DELAY QUEUE MODULE
INIT PREFETCH THROTTLE MODULE
INIT OFFSET SCORE MODULE
INIT BEST OFFSET PREFETCHER
OFFSET CHANGED FROM 1 TO 4
OFFSET CHANGED FROM 4 TO 4
OFFSET CHANGED FROM 4 TO 4
Heartbeat CPU 0 instructions: 10000002 cycles: 4538237 heartbeat IPC: 2.2035 cumulative IPC: 2.2035 (Simulation time: 0 hr 0 min 28 sec) 
OFFSET CHANGED FROM 4 TO 4
OFFSET CHANGED FROM 4 TO -5
OFFSET CHANGED FROM -5 TO 4
OFFSET CHANGED FROM 4 TO 4
Heartbeat CPU 0 instructions: 20000002 cycles: 9095151 heartbeat IPC: 2.19447 cumulative IPC: 2.19897 (Simulation time: 0 hr 0 min 55 sec) 
OFFSET CHANGED FROM 4 TO 4
OFFSET CHANGED FROM 4 TO 4
OFFSET CHANGED FROM 4 TO 4
OFFSET CHANGED FROM 4 TO -7
Heartbeat CPU 0 instructions: 30000001 cycles: 13631306 heartbeat IPC: 2.20451 cumulative IPC: 2.20082 (Simulation time: 0 hr 1 min 22 sec) 
OFFSET CHANGED FROM -7 TO -7
OFFSET CHANGED FROM -7 TO 5
OFFSET CHANGED FROM 5 TO 4
OFFSET CHANGED FROM 4 TO 4
Heartbeat CPU 0 instructions: 40000001 cycles: 18146770 heartbeat IPC: 2.21461 cumulative IPC: 2.20425 (Simulation time: 0 hr 1 min 48 sec) 
OFFSET CHANGED FROM 4 TO -7
OFFSET CHANGED FROM -7 TO 4
OFFSET CHANGED FROM 4 TO 5
Heartbeat CPU 0 instructions: 50000002 cycles: 22701213 heartbeat IPC: 2.19566 cumulative IPC: 2.20253 (Simulation time: 0 hr 2 min 15 sec) 

Warmup complete CPU 0 instructions: 50000002 cycles: 22701213 (Simulation time: 0 hr 2 min 15 sec) 

OFFSET CHANGED FROM 5 TO 4
OFFSET CHANGED FROM 4 TO 4
OFFSET CHANGED FROM 4 TO 4
OFFSET CHANGED FROM 4 TO 4
Heartbeat CPU 0 instructions: 60000003 cycles: 36007939 heartbeat IPC: 0.7515 cumulative IPC: 0.7515 (Simulation time: 0 hr 2 min 35 sec) 
OFFSET CHANGED FROM 4 TO 3
OFFSET CHANGED FROM 3 TO 1
OFFSET CHANGED FROM 1 TO 1
OFFSET CHANGED FROM 1 TO 4
Heartbeat CPU 0 instructions: 70000000 cycles: 49273483 heartbeat IPC: 0.753832 cumulative IPC: 0.752664 (Simulation time: 0 hr 2 min 54 sec) 
OFFSET CHANGED FROM 4 TO 4
OFFSET CHANGED FROM 4 TO 4
OFFSET CHANGED FROM 4 TO -4
OFFSET CHANGED FROM -4 TO 4
Heartbeat CPU 0 instructions: 80000001 cycles: 62596733 heartbeat IPC: 0.750568 cumulative IPC: 0.751964 (Simulation time: 0 hr 3 min 13 sec) 
OFFSET CHANGED FROM 4 TO 2
OFFSET CHANGED FROM 2 TO 4
OFFSET CHANGED FROM 4 TO 3
OFFSET CHANGED FROM 3 TO 3
Heartbeat CPU 0 instructions: 90000001 cycles: 75915725 heartbeat IPC: 0.750808 cumulative IPC: 0.751675 (Simulation time: 0 hr 3 min 32 sec) 
OFFSET CHANGED FROM 3 TO 5
OFFSET CHANGED FROM 5 TO 4
OFFSET CHANGED FROM 4 TO 4
Heartbeat CPU 0 instructions: 100000000 cycles: 89407865 heartbeat IPC: 0.741172 cumulative IPC: 0.74955 (Simulation time: 0 hr 3 min 52 sec) 
OFFSET CHANGED FROM 4 TO 3
OFFSET CHANGED FROM 3 TO 4
OFFSET CHANGED FROM 4 TO 3
Heartbeat CPU 0 instructions: 110000000 cycles: 102948916 heartbeat IPC: 0.738495 cumulative IPC: 0.747685 (Simulation time: 0 hr 4 min 12 sec) 
OFFSET CHANGED FROM 3 TO 2
OFFSET CHANGED FROM 2 TO 3
OFFSET CHANGED FROM 3 TO 1
Heartbeat CPU 0 instructions: 120000000 cycles: 116358451 heartbeat IPC: 0.745738 cumulative IPC: 0.747406 (Simulation time: 0 hr 4 min 33 sec) 
OFFSET CHANGED FROM 1 TO 3
OFFSET CHANGED FROM 3 TO 4
OFFSET CHANGED FROM 4 TO 3
Heartbeat CPU 0 instructions: 130000000 cycles: 129825371 heartbeat IPC: 0.74256 cumulative IPC: 0.746797 (Simulation time: 0 hr 4 min 52 sec) 
OFFSET CHANGED FROM 3 TO 4
OFFSET CHANGED FROM 4 TO 4
OFFSET CHANGED FROM 4 TO 3
Heartbeat CPU 0 instructions: 140000001 cycles: 143144252 heartbeat IPC: 0.750814 cumulative IPC: 0.747241 (Simulation time: 0 hr 5 min 12 sec) 
OFFSET CHANGED FROM 3 TO 4
OFFSET CHANGED FROM 4 TO 1
OFFSET CHANGED FROM 1 TO 1
Heartbeat CPU 0 instructions: 150000000 cycles: 156333899 heartbeat IPC: 0.75817 cumulative IPC: 0.74832 (Simulation time: 0 hr 5 min 32 sec) 
OFFSET CHANGED FROM 1 TO 5
OFFSET CHANGED FROM 5 TO 4
OFFSET CHANGED FROM 4 TO 2
OFFSET CHANGED FROM 2 TO 1
Heartbeat CPU 0 instructions: 160000001 cycles: 169646138 heartbeat IPC: 0.751189 cumulative IPC: 0.74858 (Simulation time: 0 hr 5 min 51 sec) 
OFFSET CHANGED FROM 1 TO 2
OFFSET CHANGED FROM 2 TO 3
OFFSET CHANGED FROM 3 TO 4
Heartbeat CPU 0 instructions: 170000000 cycles: 183084332 heartbeat IPC: 0.744148 cumulative IPC: 0.748208 (Simulation time: 0 hr 6 min 12 sec) 
OFFSET CHANGED FROM 4 TO 4
OFFSET CHANGED FROM 4 TO 2
OFFSET CHANGED FROM 2 TO 4
Heartbeat CPU 0 instructions: 180000000 cycles: 196479523 heartbeat IPC: 0.746537 cumulative IPC: 0.74808 (Simulation time: 0 hr 6 min 31 sec) 
OFFSET CHANGED FROM 4 TO 2
OFFSET CHANGED FROM 2 TO 2
OFFSET CHANGED FROM 2 TO 2
OFFSET CHANGED FROM 2 TO 3
OFFSET CHANGED FROM 3 TO -6
Heartbeat CPU 0 instructions: 190000003 cycles: 209793223 heartbeat IPC: 0.751106 cumulative IPC: 0.748295 (Simulation time: 0 hr 6 min 51 sec) 
OFFSET CHANGED FROM -6 TO 4
OFFSET CHANGED FROM 4 TO 2
OFFSET CHANGED FROM 2 TO 2
OFFSET CHANGED FROM 2 TO -3
OFFSET CHANGED FROM -3 TO 3
OFFSET CHANGED FROM 3 TO 2
OFFSET CHANGED FROM 2 TO 9
OFFSET CHANGED FROM 9 TO 5
Heartbeat CPU 0 instructions: 200000000 cycles: 223742804 heartbeat IPC: 0.716867 cumulative IPC: 0.746114 (Simulation time: 0 hr 7 min 11 sec) 
OFFSET CHANGED FROM 5 TO 7
OFFSET CHANGED FROM 7 TO 2
OFFSET CHANGED FROM 2 TO 7
OFFSET CHANGED FROM 7 TO 11
OFFSET CHANGED FROM 11 TO 7
OFFSET CHANGED FROM 7 TO 6
OFFSET CHANGED FROM 6 TO 5
OFFSET CHANGED FROM 5 TO 4
OFFSET CHANGED FROM 4 TO 11
OFFSET CHANGED FROM 11 TO 4
OFFSET CHANGED FROM 4 TO -4
OFFSET CHANGED FROM -4 TO 5
OFFSET CHANGED FROM 5 TO 3
Heartbeat CPU 0 instructions: 210000002 cycles: 238218560 heartbeat IPC: 0.69081 cumulative IPC: 0.7424 (Simulation time: 0 hr 7 min 32 sec) 
OFFSET CHANGED FROM 3 TO 4
OFFSET CHANGED FROM 4 TO 5
OFFSET CHANGED FROM 5 TO 4
OFFSET CHANGED FROM 4 TO 4
Heartbeat CPU 0 instructions: 220000000 cycles: 251580274 heartbeat IPC: 0.748407 cumulative IPC: 0.74275 (Simulation time: 0 hr 7 min 53 sec) 
OFFSET CHANGED FROM 4 TO 1
OFFSET CHANGED FROM 1 TO 3
OFFSET CHANGED FROM 3 TO 3
Heartbeat CPU 0 instructions: 230000002 cycles: 265177962 heartbeat IPC: 0.735419 cumulative IPC: 0.742339 (Simulation time: 0 hr 8 min 14 sec) 
OFFSET CHANGED FROM 3 TO 4
OFFSET CHANGED FROM 4 TO 3
Heartbeat CPU 0 instructions: 240000001 cycles: 278833311 heartbeat IPC: 0.732314 cumulative IPC: 0.741805 (Simulation time: 0 hr 8 min 34 sec) 
OFFSET CHANGED FROM 3 TO 3
OFFSET CHANGED FROM 3 TO 2
OFFSET CHANGED FROM 2 TO 5
OFFSET CHANGED FROM 5 TO 4
Heartbeat CPU 0 instructions: 250000002 cycles: 292383363 heartbeat IPC: 0.738005 cumulative IPC: 0.741614 (Simulation time: 0 hr 8 min 54 sec) 
OFFSET CHANGED FROM 4 TO -4
OFFSET CHANGED FROM -4 TO 1
OFFSET CHANGED FROM 1 TO 2
OFFSET CHANGED FROM 2 TO 4
Heartbeat CPU 0 instructions: 260000000 cycles: 305566066 heartbeat IPC: 0.75857 cumulative IPC: 0.742404 (Simulation time: 0 hr 9 min 14 sec) 
OFFSET CHANGED FROM 4 TO 3
OFFSET CHANGED FROM 3 TO 5
OFFSET CHANGED FROM 5 TO 4
OFFSET CHANGED FROM 4 TO 3
OFFSET CHANGED FROM 3 TO 2
Heartbeat CPU 0 instructions: 270000000 cycles: 318933616 heartbeat IPC: 0.74808 cumulative IPC: 0.74266 (Simulation time: 0 hr 9 min 35 sec) 
OFFSET CHANGED FROM 2 TO 2
OFFSET CHANGED FROM 2 TO 4
OFFSET CHANGED FROM 4 TO 3
Heartbeat CPU 0 instructions: 280000001 cycles: 332256096 heartbeat IPC: 0.750611 cumulative IPC: 0.743002 (Simulation time: 0 hr 9 min 55 sec) 
OFFSET CHANGED FROM 3 TO -4
OFFSET CHANGED FROM -4 TO 2
OFFSET CHANGED FROM 2 TO 4
OFFSET CHANGED FROM 4 TO 5
OFFSET CHANGED FROM 5 TO 3
Heartbeat CPU 0 instructions: 290000000 cycles: 345511160 heartbeat IPC: 0.754429 cumulative IPC: 0.743472 (Simulation time: 0 hr 10 min 15 sec) 
OFFSET CHANGED FROM 3 TO 3
OFFSET CHANGED FROM 3 TO 2
OFFSET CHANGED FROM 2 TO 4
OFFSET CHANGED FROM 4 TO 4
OFFSET CHANGED FROM 4 TO -5
Heartbeat CPU 0 instructions: 300000000 cycles: 358760261 heartbeat IPC: 0.754768 cumulative IPC: 0.743917 (Simulation time: 0 hr 10 min 34 sec) 
Finished CPU 0 instructions: 250000000 cycles: 336059054 cumulative IPC: 0.743917 (Simulation time: 0 hr 10 min 34 sec) 

ChampSim completed all CPUs

Region of Interest Statistics

CPU 0 cumulative IPC: 0.743917 instructions: 250000000 cycles: 336059054
L1D TOTAL     ACCESS:   77933954  HIT:   77546089  MISS:     387865
L1D LOAD      ACCESS:   47789749  HIT:   47496191  MISS:     293558
L1D RFO       ACCESS:   30144205  HIT:   30049898  MISS:      94307
L1D PREFETCH  ACCESS:          0  HIT:          0  MISS:          0
L1D WRITEBACK ACCESS:          0  HIT:          0  MISS:          0
L1D PREFETCH  REQUESTED:          0  ISSUED:          0  USEFUL:          0  USELESS:          0
L1D AVERAGE MISS LATENCY: 27.3248 cycles
L1I TOTAL     ACCESS:   48344915  HIT:   48196561  MISS:     148354
L1I LOAD      ACCESS:   48265790  HIT:   48171089  MISS:      94701
L1I RFO       ACCESS:          0  HIT:          0  MISS:          0
L1I PREFETCH  ACCESS:      79125  HIT:      25472  MISS:      53653
L1I WRITEBACK ACCESS:          0  HIT:          0  MISS:          0
L1I PREFETCH  REQUESTED:     112988  ISSUED:     112988  USEFUL:      34044  USELESS:      19593
L1I AVERAGE MISS LATENCY: 14.6939 cycles
L2C TOTAL     ACCESS:    1083228  HIT:    1025114  MISS:      58114
L2C LOAD      ACCESS:     388095  HIT:     378482  MISS:       9613
L2C RFO       ACCESS:      94280  HIT:      72054  MISS:      22226
L2C PREFETCH  ACCESS:     457907  HIT:     431706  MISS:      26201
L2C WRITEBACK ACCESS:     142946  HIT:     142872  MISS:         74
L2C PREFETCH  REQUESTED:     412972  ISSUED:     412972  USEFUL:      17546  USELESS:       7931
L2C AVERAGE MISS LATENCY: 129.617 cycles
LLC TOTAL     ACCESS:      82530  HIT:      39489  MISS:      43041
LLC LOAD      ACCESS:       9168  HIT:       3109  MISS:       6059
LLC RFO       ACCESS:      22221  HIT:        498  MISS:      21723
LLC PREFETCH  ACCESS:      26650  HIT:      11391  MISS:      15259
LLC WRITEBACK ACCESS:      24491  HIT:      24491  MISS:          0
LLC PREFETCH  REQUESTED:          0  ISSUED:          0  USEFUL:        518  USELESS:       9988
LLC AVERAGE MISS LATENCY: 135.114 cycles
Major fault: 0 Minor fault: 1517
CPU 0 L1I next line prefetcher final stats
CPU 0 L2C best offset prefetcher final stats

DRAM Statistics
 CHANNEL 0
 RQ ROW_BUFFER_HIT:      19169  ROW_BUFFER_MISS:      23872
 DBUS_CONGESTED:       6355
 WQ ROW_BUFFER_HIT:        365  ROW_BUFFER_MISS:       3223  FULL:          0

 AVG_CONGESTED_CYCLE: 6

CPU 0 Branch Prediction Accuracy: 88.2314% MPKI: 20.4975 Average ROB Occupancy at Mispredict: 23.0749

Branch types
NOT_BRANCH: 206456809 82.5827%
BRANCH_DIRECT_JUMP: 1542470 0.616988%
BRANCH_INDIRECT: 9564 0.0038256%
BRANCH_CONDITIONAL: 27403062 10.9612%
BRANCH_DIRECT_CALL: 7293869 2.91755%
BRANCH_INDIRECT_CALL: 23 9.2e-06%
BRANCH_RETURN: 7293887 2.91755%
BRANCH_OTHER: 0 0%

