
*** ChampSim Multicore Out-of-Order Simulator ***

Warmup Instructions: 10000000
Simulation Instructions: 100000000
Number of CPUs: 1
LLC sets: 2048
LLC ways: 16
Off-chip DRAM Size: 4096 MB Channels: 1 Width: 64-bit Data Rate: 3200 MT/s

CPU 0 runs /home/wezelis2/ece511/ECE511_Project/ChampSim/dpc3_traces/401.bzip2-277B.champsimtrace.xz
CPU 0 Bimodal branch predictor
CPU 0 L1I next line prefetcher
INIT BEST RECENT REQUEST TABLE MODULE
INIT DELAY QUEUE MODULE
INIT PREFETCH THROTTLE MODULE
INIT OFFSET SCORE MODULE
INIT BEST OFFSET PREFETCHER
OFFSET CHANGED FROM 1 TO 1
CHANGING MSHR THRESHOLD FROM 28 TO MIN 2
NO PREFETCH REQUEST BECAUSE PREFETCH SCORE 2 IS NOT GREATER THAN 20 (MSHR OCC = 2)
NO PREFETCH REQUEST BECAUSE PREFETCH SCORE 2 IS NOT GREATER THAN 20 (MSHR OCC = 2)
NO PREFETCH REQUEST BECAUSE PREFETCH SCORE 2 IS NOT GREATER THAN 20 (MSHR OCC = 2)
NO PREFETCH REQUEST BECAUSE PREFETCH SCORE 2 IS NOT GREATER THAN 20 (MSHR OCC = 2)
NO PREFETCH REQUEST BECAUSE PREFETCH SCORE 2 IS NOT GREATER THAN 20 (MSHR OCC = 2)
NO PREFETCH REQUEST BECAUSE PREFETCH SCORE 2 IS NOT GREATER THAN 20 (MSHR OCC = 2)
NO PREFETCH REQUEST BECAUSE PREFETCH SCORE 2 IS NOT GREATER THAN 20 (MSHR OCC = 2)
NO PREFETCH REQUEST BECAUSE PREFETCH SCORE 2 IS NOT GREATER THAN 20 (MSHR OCC = 2)
NO PREFETCH REQUEST BECAUSE PREFETCH SCORE 2 IS NOT GREATER THAN 20 (MSHR OCC = 2)
NO PREFETCH REQUEST BECAUSE PREFETCH SCORE 2 IS NOT GREATER THAN 20 (MSHR OCC = 2)
NO PREFETCH REQUEST BECAUSE PREFETCH SCORE 2 IS NOT GREATER THAN 20 (MSHR OCC = 2)
NO PREFETCH REQUEST BECAUSE PREFETCH SCORE 2 IS NOT GREATER THAN 20 (MSHR OCC = 2)
NO PREFETCH REQUEST BECAUSE PREFETCH SCORE 2 IS NOT GREATER THAN 20 (MSHR OCC = 2)
NO PREFETCH REQUEST BECAUSE PREFETCH SCORE 2 IS NOT GREATER THAN 20 (MSHR OCC = 2)
NO PREFETCH REQUEST BECAUSE PREFETCH SCORE 2 IS NOT GREATER THAN 20 (MSHR OCC = 2)
NO PREFETCH REQUEST BECAUSE PREFETCH SCORE 2 IS NOT GREATER THAN 20 (MSHR OCC = 2)
NO PREFETCH REQUEST BECAUSE PREFETCH SCORE 2 IS NOT GREATER THAN 20 (MSHR OCC = 2)
NO PREFETCH REQUEST BECAUSE PREFETCH SCORE 2 IS NOT GREATER THAN 20 (MSHR OCC = 2)
NO PREFETCH REQUEST BECAUSE PREFETCH SCORE 2 IS NOT GREATER THAN 20 (MSHR OCC = 2)
NO PREFETCH REQUEST BECAUSE PREFETCH SCORE 2 IS NOT GREATER THAN 20 (MSHR OCC = 2)
NO PREFETCH REQUEST BECAUSE PREFETCH SCORE 2 IS NOT GREATER THAN 20 (MSHR OCC = 2)
NO PREFETCH REQUEST BECAUSE PREFETCH SCORE 2 IS NOT GREATER THAN 20 (MSHR OCC = 2)
NO PREFETCH REQUEST BECAUSE PREFETCH SCORE 2 IS NOT GREATER THAN 20 (MSHR OCC = 2)
NO PREFETCH REQUEST BECAUSE PREFETCH SCORE 2 IS NOT GREATER THAN 20 (MSHR OCC = 2)
NO PREFETCH REQUEST BECAUSE PREFETCH SCORE 2 IS NOT GREATER THAN 20 (MSHR OCC = 2)
NO PREFETCH REQUEST BECAUSE PREFETCH SCORE 2 IS NOT GREATER THAN 20 (MSHR OCC = 2)
NO PREFETCH REQUEST BECAUSE PREFETCH SCORE 2 IS NOT GREATER THAN 20 (MSHR OCC = 2)
NO PREFETCH REQUEST BECAUSE PREFETCH SCORE 2 IS NOT GREATER THAN 20 (MSHR OCC = 2)
NO PREFETCH REQUEST BECAUSE PREFETCH SCORE 2 IS NOT GREATER THAN 20 (MSHR OCC = 2)
NO PREFETCH REQUEST BECAUSE PREFETCH SCORE 2 IS NOT GREATER THAN 20 (MSHR OCC = 2)
NO PREFETCH REQUEST BECAUSE PREFETCH SCORE 2 IS NOT GREATER THAN 20 (MSHR OCC = 2)
NO PREFETCH REQUEST BECAUSE PREFETCH SCORE 2 IS NOT GREATER THAN 20 (MSHR OCC = 2)
NO PREFETCH REQUEST BECAUSE PREFETCH SCORE 2 IS NOT GREATER THAN 20 (MSHR OCC = 2)
NO PREFETCH REQUEST BECAUSE PREFETCH SCORE 2 IS NOT GREATER THAN 20 (MSHR OCC = 2)
NO PREFETCH REQUEST BECAUSE PREFETCH SCORE 2 IS NOT GREATER THAN 20 (MSHR OCC = 2)
NO PREFETCH REQUEST BECAUSE PREFETCH SCORE 2 IS NOT GREATER THAN 20 (MSHR OCC = 2)
NO PREFETCH REQUEST BECAUSE PREFETCH SCORE 2 IS NOT GREATER THAN 20 (MSHR OCC = 2)
NO PREFETCH REQUEST BECAUSE PREFETCH SCORE 2 IS NOT GREATER THAN 20 (MSHR OCC = 2)
NO PREFETCH REQUEST BECAUSE PREFETCH SCORE 2 IS NOT GREATER THAN 20 (MSHR OCC = 2)
NO PREFETCH REQUEST BECAUSE PREFETCH SCORE 2 IS NOT GREATER THAN 20 (MSHR OCC = 2)
NO PREFETCH REQUEST BECAUSE PREFETCH SCORE 2 IS NOT GREATER THAN 20 (MSHR OCC = 2)
NO PREFETCH REQUEST BECAUSE PREFETCH SCORE 2 IS NOT GREATER THAN 20 (MSHR OCC = 2)
NO PREFETCH REQUEST BECAUSE PREFETCH SCORE 2 IS NOT GREATER THAN 20 (MSHR OCC = 2)
NO PREFETCH REQUEST BECAUSE PREFETCH SCORE 2 IS NOT GREATER THAN 20 (MSHR OCC = 2)
NO PREFETCH REQUEST BECAUSE PREFETCH SCORE 2 IS NOT GREATER THAN 20 (MSHR OCC = 2)
NO PREFETCH REQUEST BECAUSE PREFETCH SCORE 2 IS NOT GREATER THAN 20 (MSHR OCC = 2)
NO PREFETCH REQUEST BECAUSE PREFETCH SCORE 2 IS NOT GREATER THAN 20 (MSHR OCC = 2)
NO PREFETCH REQUEST BECAUSE PREFETCH SCORE 2 IS NOT GREATER THAN 20 (MSHR OCC = 2)
NO PREFETCH REQUEST BECAUSE PREFETCH SCORE 2 IS NOT GREATER THAN 20 (MSHR OCC = 2)
NO PREFETCH REQUEST BECAUSE PREFETCH SCORE 2 IS NOT GREATER THAN 20 (MSHR OCC = 2)
NO PREFETCH REQUEST BECAUSE PREFETCH SCORE 2 IS NOT GREATER THAN 20 (MSHR OCC = 2)
NO PREFETCH REQUEST BECAUSE PREFETCH SCORE 2 IS NOT GREATER THAN 20 (MSHR OCC = 2)
NO PREFETCH REQUEST BECAUSE PREFETCH SCORE 2 IS NOT GREATER THAN 20 (MSHR OCC = 2)
NO PREFETCH REQUEST BECAUSE PREFETCH SCORE 2 IS NOT GREATER THAN 20 (MSHR OCC = 2)
NO PREFETCH REQUEST BECAUSE PREFETCH SCORE 2 IS NOT GREATER THAN 20 (MSHR OCC = 2)
NO PREFETCH REQUEST BECAUSE PREFETCH SCORE 2 IS NOT GREATER THAN 20 (MSHR OCC = 2)
NO PREFETCH REQUEST BECAUSE PREFETCH SCORE 2 IS NOT GREATER THAN 20 (MSHR OCC = 2)
NO PREFETCH REQUEST BECAUSE PREFETCH SCORE 2 IS NOT GREATER THAN 20 (MSHR OCC = 2)
NO PREFETCH REQUEST BECAUSE PREFETCH SCORE 2 IS NOT GREATER THAN 20 (MSHR OCC = 2)
NO PREFETCH REQUEST BECAUSE PREFETCH SCORE 2 IS NOT GREATER THAN 20 (MSHR OCC = 2)
NO PREFETCH REQUEST BECAUSE PREFETCH SCORE 2 IS NOT GREATER THAN 20 (MSHR OCC = 2)
NO PREFETCH REQUEST BECAUSE PREFETCH SCORE 2 IS NOT GREATER THAN 20 (MSHR OCC = 2)
NO PREFETCH REQUEST BECAUSE PREFETCH SCORE 2 IS NOT GREATER THAN 20 (MSHR OCC = 2)
NO PREFETCH REQUEST BECAUSE PREFETCH SCORE 2 IS NOT GREATER THAN 20 (MSHR OCC = 2)
NO PREFETCH REQUEST BECAUSE PREFETCH SCORE 2 IS NOT GREATER THAN 20 (MSHR OCC = 2)
NO PREFETCH REQUEST BECAUSE PREFETCH SCORE 2 IS NOT GREATER THAN 20 (MSHR OCC = 2)
NO PREFETCH REQUEST BECAUSE PREFETCH SCORE 2 IS NOT GREATER THAN 20 (MSHR OCC = 2)
NO PREFETCH REQUEST BECAUSE PREFETCH SCORE 2 IS NOT GREATER THAN 20 (MSHR OCC = 2)
NO PREFETCH REQUEST BECAUSE PREFETCH SCORE 2 IS NOT GREATER THAN 20 (MSHR OCC = 2)
NO PREFETCH REQUEST BECAUSE PREFETCH SCORE 2 IS NOT GREATER THAN 20 (MSHR OCC = 2)
NO PREFETCH REQUEST BECAUSE PREFETCH SCORE 2 IS NOT GREATER THAN 20 (MSHR OCC = 2)
NO PREFETCH REQUEST BECAUSE PREFETCH SCORE 2 IS NOT GREATER THAN 20 (MSHR OCC = 2)
NO PREFETCH REQUEST BECAUSE PREFETCH SCORE 2 IS NOT GREATER THAN 20 (MSHR OCC = 2)
NO PREFETCH REQUEST BECAUSE PREFETCH SCORE 2 IS NOT GREATER THAN 20 (MSHR OCC = 2)
NO PREFETCH REQUEST BECAUSE PREFETCH SCORE 2 IS NOT GREATER THAN 20 (MSHR OCC = 2)
NO PREFETCH REQUEST BECAUSE PREFETCH SCORE 2 IS NOT GREATER THAN 20 (MSHR OCC = 2)
NO PREFETCH REQUEST BECAUSE PREFETCH SCORE 2 IS NOT GREATER THAN 20 (MSHR OCC = 2)
NO PREFETCH REQUEST BECAUSE PREFETCH SCORE 2 IS NOT GREATER THAN 20 (MSHR OCC = 2)
NO PREFETCH REQUEST BECAUSE PREFETCH SCORE 2 IS NOT GREATER THAN 20 (MSHR OCC = 2)
NO PREFETCH REQUEST BECAUSE PREFETCH SCORE 2 IS NOT GREATER THAN 20 (MSHR OCC = 2)
NO PREFETCH REQUEST BECAUSE PREFETCH SCORE 2 IS NOT GREATER THAN 20 (MSHR OCC = 2)
NO PREFETCH REQUEST BECAUSE PREFETCH SCORE 2 IS NOT GREATER THAN 20 (MSHR OCC = 2)
NO PREFETCH REQUEST BECAUSE PREFETCH SCORE 2 IS NOT GREATER THAN 20 (MSHR OCC = 2)
NO PREFETCH REQUEST BECAUSE PREFETCH SCORE 2 IS NOT GREATER THAN 20 (MSHR OCC = 2)
NO PREFETCH REQUEST BECAUSE PREFETCH SCORE 2 IS NOT GREATER THAN 20 (MSHR OCC = 2)
NO PREFETCH REQUEST BECAUSE PREFETCH SCORE 2 IS NOT GREATER THAN 20 (MSHR OCC = 2)
NO PREFETCH REQUEST BECAUSE PREFETCH SCORE 2 IS NOT GREATER THAN 20 (MSHR OCC = 2)
NO PREFETCH REQUEST BECAUSE PREFETCH SCORE 2 IS NOT GREATER THAN 20 (MSHR OCC = 2)
NO PREFETCH REQUEST BECAUSE PREFETCH SCORE 2 IS NOT GREATER THAN 20 (MSHR OCC = 2)
NO PREFETCH REQUEST BECAUSE PREFETCH SCORE 2 IS NOT GREATER THAN 20 (MSHR OCC = 2)
NO PREFETCH REQUEST BECAUSE PREFETCH SCORE 2 IS NOT GREATER THAN 20 (MSHR OCC = 2)
NO PREFETCH REQUEST BECAUSE PREFETCH SCORE 2 IS NOT GREATER THAN 20 (MSHR OCC = 2)
NO PREFETCH REQUEST BECAUSE PREFETCH SCORE 2 IS NOT GREATER THAN 20 (MSHR OCC = 2)
NO PREFETCH REQUEST BECAUSE PREFETCH SCORE 2 IS NOT GREATER THAN 20 (MSHR OCC = 2)
NO PREFETCH REQUEST BECAUSE PREFETCH SCORE 2 IS NOT GREATER THAN 20 (MSHR OCC = 2)
NO PREFETCH REQUEST BECAUSE PREFETCH SCORE 2 IS NOT GREATER THAN 20 (MSHR OCC = 2)
NO PREFETCH REQUEST BECAUSE PREFETCH SCORE 2 IS NOT GREATER THAN 20 (MSHR OCC = 2)
NO PREFETCH REQUEST BECAUSE PREFETCH SCORE 2 IS NOT GREATER THAN 20 (MSHR OCC = 2)
NO PREFETCH REQUEST BECAUSE PREFETCH SCORE 2 IS NOT GREATER THAN 20 (MSHR OCC = 2)
NO PREFETCH REQUEST BECAUSE PREFETCH SCORE 2 IS NOT GREATER THAN 20 (MSHR OCC = 2)
NO PREFETCH REQUEST BECAUSE PREFETCH SCORE 2 IS NOT GREATER THAN 20 (MSHR OCC = 2)
NO PREFETCH REQUEST BECAUSE PREFETCH SCORE 2 IS NOT GREATER THAN 20 (MSHR OCC = 2)
NO PREFETCH REQUEST BECAUSE PREFETCH SCORE 2 IS NOT GREATER THAN 20 (MSHR OCC = 2)
NO PREFETCH REQUEST BECAUSE PREFETCH SCORE 2 IS NOT GREATER THAN 20 (MSHR OCC = 2)
NO PREFETCH REQUEST BECAUSE PREFETCH SCORE 2 IS NOT GREATER THAN 20 (MSHR OCC = 2)
NO PREFETCH REQUEST BECAUSE PREFETCH SCORE 2 IS NOT GREATER THAN 20 (MSHR OCC = 2)
NO PREFETCH REQUEST BECAUSE PREFETCH SCORE 2 IS NOT GREATER THAN 20 (MSHR OCC = 2)
NO PREFETCH REQUEST BECAUSE PREFETCH SCORE 2 IS NOT GREATER THAN 20 (MSHR OCC = 2)
NO PREFETCH REQUEST BECAUSE PREFETCH SCORE 2 IS NOT GREATER THAN 20 (MSHR OCC = 2)
NO PREFETCH REQUEST BECAUSE PREFETCH SCORE 2 IS NOT GREATER THAN 20 (MSHR OCC = 2)
NO PREFETCH REQUEST BECAUSE PREFETCH SCORE 2 IS NOT GREATER THAN 20 (MSHR OCC = 2)
NO PREFETCH REQUEST BECAUSE PREFETCH SCORE 2 IS NOT GREATER THAN 20 (MSHR OCC = 2)
NO PREFETCH REQUEST BECAUSE PREFETCH SCORE 2 IS NOT GREATER THAN 20 (MSHR OCC = 2)
NO PREFETCH REQUEST BECAUSE PREFETCH SCORE 2 IS NOT GREATER THAN 20 (MSHR OCC = 2)
NO PREFETCH REQUEST BECAUSE PREFETCH SCORE 2 IS NOT GREATER THAN 20 (MSHR OCC = 2)
NO PREFETCH REQUEST BECAUSE PREFETCH SCORE 2 IS NOT GREATER THAN 20 (MSHR OCC = 2)
NO PREFETCH REQUEST BECAUSE PREFETCH SCORE 2 IS NOT GREATER THAN 20 (MSHR OCC = 2)
NO PREFETCH REQUEST BECAUSE PREFETCH SCORE 2 IS NOT GREATER THAN 20 (MSHR OCC = 2)
NO PREFETCH REQUEST BECAUSE PREFETCH SCORE 2 IS NOT GREATER THAN 20 (MSHR OCC = 2)
NO PREFETCH REQUEST BECAUSE PREFETCH SCORE 2 IS NOT GREATER THAN 20 (MSHR OCC = 2)
NO PREFETCH REQUEST BECAUSE PREFETCH SCORE 2 IS NOT GREATER THAN 20 (MSHR OCC = 2)
NO PREFETCH REQUEST BECAUSE PREFETCH SCORE 2 IS NOT GREATER THAN 20 (MSHR OCC = 2)
NO PREFETCH REQUEST BECAUSE PREFETCH SCORE 2 IS NOT GREATER THAN 20 (MSHR OCC = 2)
NO PREFETCH REQUEST BECAUSE PREFETCH SCORE 2 IS NOT GREATER THAN 20 (MSHR OCC = 2)
NO PREFETCH REQUEST BECAUSE PREFETCH SCORE 2 IS NOT GREATER THAN 20 (MSHR OCC = 2)
NO PREFETCH REQUEST BECAUSE PREFETCH SCORE 2 IS NOT GREATER THAN 20 (MSHR OCC = 2)
NO PREFETCH REQUEST BECAUSE PREFETCH SCORE 2 IS NOT GREATER THAN 20 (MSHR OCC = 2)
NO PREFETCH REQUEST BECAUSE PREFETCH SCORE 2 IS NOT GREATER THAN 20 (MSHR OCC = 2)
NO PREFETCH REQUEST BECAUSE PREFETCH SCORE 2 IS NOT GREATER THAN 20 (MSHR OCC = 2)
NO PREFETCH REQUEST BECAUSE PREFETCH SCORE 2 IS NOT GREATER THAN 20 (MSHR OCC = 2)
NO PREFETCH REQUEST BECAUSE PREFETCH SCORE 2 IS NOT GREATER THAN 20 (MSHR OCC = 2)
NO PREFETCH REQUEST BECAUSE PREFETCH SCORE 2 IS NOT GREATER THAN 20 (MSHR OCC = 2)
NO PREFETCH REQUEST BECAUSE PREFETCH SCORE 2 IS NOT GREATER THAN 20 (MSHR OCC = 2)
NO PREFETCH REQUEST BECAUSE PREFETCH SCORE 2 IS NOT GREATER THAN 20 (MSHR OCC = 2)
NO PREFETCH REQUEST BECAUSE PREFETCH SCORE 2 IS NOT GREATER THAN 20 (MSHR OCC = 2)
NO PREFETCH REQUEST BECAUSE PREFETCH SCORE 2 IS NOT GREATER THAN 20 (MSHR OCC = 2)
NO PREFETCH REQUEST BECAUSE PREFETCH SCORE 2 IS NOT GREATER THAN 20 (MSHR OCC = 2)
NO PREFETCH REQUEST BECAUSE PREFETCH SCORE 2 IS NOT GREATER THAN 20 (MSHR OCC = 2)
NO PREFETCH REQUEST BECAUSE PREFETCH SCORE 2 IS NOT GREATER THAN 20 (MSHR OCC = 2)
NO PREFETCH REQUEST BECAUSE PREFETCH SCORE 2 IS NOT GREATER THAN 20 (MSHR OCC = 2)
NO PREFETCH REQUEST BECAUSE PREFETCH SCORE 2 IS NOT GREATER THAN 20 (MSHR OCC = 2)
NO PREFETCH REQUEST BECAUSE PREFETCH SCORE 2 IS NOT GREATER THAN 20 (MSHR OCC = 2)
NO PREFETCH REQUEST BECAUSE PREFETCH SCORE 2 IS NOT GREATER THAN 20 (MSHR OCC = 2)
NO PREFETCH REQUEST BECAUSE PREFETCH SCORE 2 IS NOT GREATER THAN 20 (MSHR OCC = 2)
NO PREFETCH REQUEST BECAUSE PREFETCH SCORE 2 IS NOT GREATER THAN 20 (MSHR OCC = 2)
NO PREFETCH REQUEST BECAUSE PREFETCH SCORE 2 IS NOT GREATER THAN 20 (MSHR OCC = 2)
NO PREFETCH REQUEST BECAUSE PREFETCH SCORE 2 IS NOT GREATER THAN 20 (MSHR OCC = 2)
NO PREFETCH REQUEST BECAUSE PREFETCH SCORE 2 IS NOT GREATER THAN 20 (MSHR OCC = 2)
NO PREFETCH REQUEST BECAUSE PREFETCH SCORE 2 IS NOT GREATER THAN 20 (MSHR OCC = 2)
NO PREFETCH REQUEST BECAUSE PREFETCH SCORE 2 IS NOT GREATER THAN 20 (MSHR OCC = 2)
NO PREFETCH REQUEST BECAUSE PREFETCH SCORE 2 IS NOT GREATER THAN 20 (MSHR OCC = 2)
NO PREFETCH REQUEST BECAUSE PREFETCH SCORE 2 IS NOT GREATER THAN 20 (MSHR OCC = 2)
NO PREFETCH REQUEST BECAUSE PREFETCH SCORE 2 IS NOT GREATER THAN 20 (MSHR OCC = 2)
NO PREFETCH REQUEST BECAUSE PREFETCH SCORE 2 IS NOT GREATER THAN 20 (MSHR OCC = 2)
NO PREFETCH REQUEST BECAUSE PREFETCH SCORE 2 IS NOT GREATER THAN 20 (MSHR OCC = 2)
NO PREFETCH REQUEST BECAUSE PREFETCH SCORE 2 IS NOT GREATER THAN 20 (MSHR OCC = 2)
CHANGING MSHR THRESHOLD FROM 2 TO 3
CHANGING MSHR THRESHOLD FROM 3 TO 5
CHANGING MSHR THRESHOLD FROM 5 TO 6
CHANGING MSHR THRESHOLD FROM 6 TO 8
CHANGING MSHR THRESHOLD FROM 8 TO 10
CHANGING MSHR THRESHOLD FROM 10 TO 11
CHANGING MSHR THRESHOLD FROM 11 TO 13
CHANGING MSHR THRESHOLD FROM 13 TO 15
CHANGING MSHR THRESHOLD FROM 15 TO 16
CHANGING MSHR THRESHOLD FROM 16 TO 18
CHANGING MSHR THRESHOLD FROM 18 TO 19
CHANGING MSHR THRESHOLD FROM 19 TO 21
CHANGING MSHR THRESHOLD FROM 21 TO 23
CHANGING MSHR THRESHOLD FROM 23 TO 24
CHANGING MSHR THRESHOLD FROM 24 TO 26
CHANGING MSHR THRESHOLD FROM 26 TO 24
CHANGING MSHR THRESHOLD FROM 24 TO 23
CHANGING MSHR THRESHOLD FROM 23 TO 21
CHANGING MSHR THRESHOLD FROM 21 TO 19
CHANGING MSHR THRESHOLD FROM 19 TO 18
CHANGING MSHR THRESHOLD FROM 18 TO 16
CHANGING MSHR THRESHOLD FROM 16 TO 15
CHANGING MSHR THRESHOLD FROM 15 TO 13
CHANGING MSHR THRESHOLD FROM 13 TO 11
CHANGING MSHR THRESHOLD FROM 11 TO 10
CHANGING MSHR THRESHOLD FROM 10 TO 8
CHANGING MSHR THRESHOLD FROM 8 TO 6
CHANGING MSHR THRESHOLD FROM 6 TO 5
CHANGING MSHR THRESHOLD FROM 5 TO 3
CHANGING MSHR THRESHOLD FROM 3 TO 2
NO PREFETCH REQUEST BECAUSE PREFETCH SCORE 2 IS NOT GREATER THAN 20 (MSHR OCC = 2)
NO PREFETCH REQUEST BECAUSE PREFETCH SCORE 2 IS NOT GREATER THAN 20 (MSHR OCC = 2)
NO PREFETCH REQUEST BECAUSE PREFETCH SCORE 2 IS NOT GREATER THAN 20 (MSHR OCC = 2)
NO PREFETCH REQUEST BECAUSE PREFETCH SCORE 2 IS NOT GREATER THAN 20 (MSHR OCC = 2)
NO PREFETCH REQUEST BECAUSE PREFETCH SCORE 2 IS NOT GREATER THAN 20 (MSHR OCC = 2)
NO PREFETCH REQUEST BECAUSE PREFETCH SCORE 2 IS NOT GREATER THAN 20 (MSHR OCC = 2)
NO PREFETCH REQUEST BECAUSE PREFETCH SCORE 2 IS NOT GREATER THAN 20 (MSHR OCC = 2)
NO PREFETCH REQUEST BECAUSE PREFETCH SCORE 2 IS NOT GREATER THAN 20 (MSHR OCC = 2)
NO PREFETCH REQUEST BECAUSE PREFETCH SCORE 2 IS NOT GREATER THAN 20 (MSHR OCC = 2)
NO PREFETCH REQUEST BECAUSE PREFETCH SCORE 2 IS NOT GREATER THAN 20 (MSHR OCC = 2)
NO PREFETCH REQUEST BECAUSE PREFETCH SCORE 2 IS NOT GREATER THAN 20 (MSHR OCC = 2)
NO PREFETCH REQUEST BECAUSE PREFETCH SCORE 2 IS NOT GREATER THAN 20 (MSHR OCC = 2)
NO PREFETCH REQUEST BECAUSE PREFETCH SCORE 2 IS NOT GREATER THAN 20 (MSHR OCC = 2)
NO PREFETCH REQUEST BECAUSE PREFETCH SCORE 2 IS NOT GREATER THAN 20 (MSHR OCC = 2)
NO PREFETCH REQUEST BECAUSE PREFETCH SCORE 2 IS NOT GREATER THAN 20 (MSHR OCC = 2)
NO PREFETCH REQUEST BECAUSE PREFETCH SCORE 2 IS NOT GREATER THAN 20 (MSHR OCC = 2)
NO PREFETCH REQUEST BECAUSE PREFETCH SCORE 2 IS NOT GREATER THAN 20 (MSHR OCC = 2)
NO PREFETCH REQUEST BECAUSE PREFETCH SCORE 2 IS NOT GREATER THAN 20 (MSHR OCC = 2)
NO PREFETCH REQUEST BECAUSE PREFETCH SCORE 2 IS NOT GREATER THAN 20 (MSHR OCC = 2)
NO PREFETCH REQUEST BECAUSE PREFETCH SCORE 2 IS NOT GREATER THAN 20 (MSHR OCC = 2)
NO PREFETCH REQUEST BECAUSE PREFETCH SCORE 2 IS NOT GREATER THAN 20 (MSHR OCC = 2)
NO PREFETCH REQUEST BECAUSE PREFETCH SCORE 2 IS NOT GREATER THAN 20 (MSHR OCC = 2)
NO PREFETCH REQUEST BECAUSE PREFETCH SCORE 2 IS NOT GREATER THAN 20 (MSHR OCC = 2)
NO PREFETCH REQUEST BECAUSE PREFETCH SCORE 2 IS NOT GREATER THAN 20 (MSHR OCC = 2)
NO PREFETCH REQUEST BECAUSE PREFETCH SCORE 2 IS NOT GREATER THAN 20 (MSHR OCC = 2)
NO PREFETCH REQUEST BECAUSE PREFETCH SCORE 2 IS NOT GREATER THAN 20 (MSHR OCC = 2)
NO PREFETCH REQUEST BECAUSE PREFETCH SCORE 2 IS NOT GREATER THAN 20 (MSHR OCC = 2)
NO PREFETCH REQUEST BECAUSE PREFETCH SCORE 2 IS NOT GREATER THAN 20 (MSHR OCC = 2)
NO PREFETCH REQUEST BECAUSE PREFETCH SCORE 2 IS NOT GREATER THAN 20 (MSHR OCC = 2)
NO PREFETCH REQUEST BECAUSE PREFETCH SCORE 2 IS NOT GREATER THAN 20 (MSHR OCC = 2)
NO PREFETCH REQUEST BECAUSE PREFETCH SCORE 2 IS NOT GREATER THAN 20 (MSHR OCC = 2)
NO PREFETCH REQUEST BECAUSE PREFETCH SCORE 2 IS NOT GREATER THAN 20 (MSHR OCC = 2)
NO PREFETCH REQUEST BECAUSE PREFETCH SCORE 2 IS NOT GREATER THAN 20 (MSHR OCC = 2)
NO PREFETCH REQUEST BECAUSE PREFETCH SCORE 2 IS NOT GREATER THAN 20 (MSHR OCC = 2)
NO PREFETCH REQUEST BECAUSE PREFETCH SCORE 2 IS NOT GREATER THAN 20 (MSHR OCC = 2)
NO PREFETCH REQUEST BECAUSE PREFETCH SCORE 2 IS NOT GREATER THAN 20 (MSHR OCC = 2)
NO PREFETCH REQUEST BECAUSE PREFETCH SCORE 2 IS NOT GREATER THAN 20 (MSHR OCC = 2)
NO PREFETCH REQUEST BECAUSE PREFETCH SCORE 2 IS NOT GREATER THAN 20 (MSHR OCC = 2)
NO PREFETCH REQUEST BECAUSE PREFETCH SCORE 2 IS NOT GREATER THAN 20 (MSHR OCC = 2)
NO PREFETCH REQUEST BECAUSE PREFETCH SCORE 2 IS NOT GREATER THAN 20 (MSHR OCC = 2)
NO PREFETCH REQUEST BECAUSE PREFETCH SCORE 2 IS NOT GREATER THAN 20 (MSHR OCC = 2)
NO PREFETCH REQUEST BECAUSE PREFETCH SCORE 2 IS NOT GREATER THAN 20 (MSHR OCC = 2)
NO PREFETCH REQUEST BECAUSE PREFETCH SCORE 2 IS NOT GREATER THAN 20 (MSHR OCC = 2)
NO PREFETCH REQUEST BECAUSE PREFETCH SCORE 2 IS NOT GREATER THAN 20 (MSHR OCC = 2)
NO PREFETCH REQUEST BECAUSE PREFETCH SCORE 2 IS NOT GREATER THAN 20 (MSHR OCC = 2)
NO PREFETCH REQUEST BECAUSE PREFETCH SCORE 2 IS NOT GREATER THAN 20 (MSHR OCC = 2)
NO PREFETCH REQUEST BECAUSE PREFETCH SCORE 2 IS NOT GREATER THAN 20 (MSHR OCC = 2)
NO PREFETCH REQUEST BECAUSE PREFETCH SCORE 2 IS NOT GREATER THAN 20 (MSHR OCC = 2)
NO PREFETCH REQUEST BECAUSE PREFETCH SCORE 2 IS NOT GREATER THAN 20 (MSHR OCC = 2)
NO PREFETCH REQUEST BECAUSE PREFETCH SCORE 2 IS NOT GREATER THAN 20 (MSHR OCC = 2)
NO PREFETCH REQUEST BECAUSE PREFETCH SCORE 2 IS NOT GREATER THAN 20 (MSHR OCC = 2)
NO PREFETCH REQUEST BECAUSE PREFETCH SCORE 2 IS NOT GREATER THAN 20 (MSHR OCC = 2)
NO PREFETCH REQUEST BECAUSE PREFETCH SCORE 2 IS NOT GREATER THAN 20 (MSHR OCC = 2)
NO PREFETCH REQUEST BECAUSE PREFETCH SCORE 2 IS NOT GREATER THAN 20 (MSHR OCC = 2)
NO PREFETCH REQUEST BECAUSE PREFETCH SCORE 2 IS NOT GREATER THAN 20 (MSHR OCC = 2)
NO PREFETCH REQUEST BECAUSE PREFETCH SCORE 2 IS NOT GREATER THAN 20 (MSHR OCC = 2)
NO PREFETCH REQUEST BECAUSE PREFETCH SCORE 2 IS NOT GREATER THAN 20 (MSHR OCC = 2)
NO PREFETCH REQUEST BECAUSE PREFETCH SCORE 2 IS NOT GREATER THAN 20 (MSHR OCC = 2)
NO PREFETCH REQUEST BECAUSE PREFETCH SCORE 2 IS NOT GREATER THAN 20 (MSHR OCC = 2)
NO PREFETCH REQUEST BECAUSE PREFETCH SCORE 2 IS NOT GREATER THAN 20 (MSHR OCC = 2)
NO PREFETCH REQUEST BECAUSE PREFETCH SCORE 2 IS NOT GREATER THAN 20 (MSHR OCC = 2)
NO PREFETCH REQUEST BECAUSE PREFETCH SCORE 2 IS NOT GREATER THAN 20 (MSHR OCC = 2)
NO PREFETCH REQUEST BECAUSE PREFETCH SCORE 2 IS NOT GREATER THAN 20 (MSHR OCC = 2)
NO PREFETCH REQUEST BECAUSE PREFETCH SCORE 2 IS NOT GREATER THAN 20 (MSHR OCC = 2)
NO PREFETCH REQUEST BECAUSE PREFETCH SCORE 2 IS NOT GREATER THAN 20 (MSHR OCC = 2)
NO PREFETCH REQUEST BECAUSE PREFETCH SCORE 2 IS NOT GREATER THAN 20 (MSHR OCC = 2)
NO PREFETCH REQUEST BECAUSE PREFETCH SCORE 2 IS NOT GREATER THAN 20 (MSHR OCC = 2)
NO PREFETCH REQUEST BECAUSE PREFETCH SCORE 2 IS NOT GREATER THAN 20 (MSHR OCC = 2)
NO PREFETCH REQUEST BECAUSE PREFETCH SCORE 2 IS NOT GREATER THAN 20 (MSHR OCC = 2)
NO PREFETCH REQUEST BECAUSE PREFETCH SCORE 2 IS NOT GREATER THAN 20 (MSHR OCC = 2)
NO PREFETCH REQUEST BECAUSE PREFETCH SCORE 2 IS NOT GREATER THAN 20 (MSHR OCC = 2)
NO PREFETCH REQUEST BECAUSE PREFETCH SCORE 2 IS NOT GREATER THAN 20 (MSHR OCC = 2)
NO PREFETCH REQUEST BECAUSE PREFETCH SCORE 2 IS NOT GREATER THAN 20 (MSHR OCC = 2)
NO PREFETCH REQUEST BECAUSE PREFETCH SCORE 2 IS NOT GREATER THAN 20 (MSHR OCC = 2)
NO PREFETCH REQUEST BECAUSE PREFETCH SCORE 2 IS NOT GREATER THAN 20 (MSHR OCC = 2)
NO PREFETCH REQUEST BECAUSE PREFETCH SCORE 2 IS NOT GREATER THAN 20 (MSHR OCC = 2)
NO PREFETCH REQUEST BECAUSE PREFETCH SCORE 2 IS NOT GREATER THAN 20 (MSHR OCC = 2)
NO PREFETCH REQUEST BECAUSE PREFETCH SCORE 2 IS NOT GREATER THAN 20 (MSHR OCC = 2)
NO PREFETCH REQUEST BECAUSE PREFETCH SCORE 2 IS NOT GREATER THAN 20 (MSHR OCC = 2)
NO PREFETCH REQUEST BECAUSE PREFETCH SCORE 2 IS NOT GREATER THAN 20 (MSHR OCC = 2)
NO PREFETCH REQUEST BECAUSE PREFETCH SCORE 2 IS NOT GREATER THAN 20 (MSHR OCC = 2)
NO PREFETCH REQUEST BECAUSE PREFETCH SCORE 2 IS NOT GREATER THAN 20 (MSHR OCC = 2)
NO PREFETCH REQUEST BECAUSE PREFETCH SCORE 2 IS NOT GREATER THAN 20 (MSHR OCC = 2)
NO PREFETCH REQUEST BECAUSE PREFETCH SCORE 2 IS NOT GREATER THAN 20 (MSHR OCC = 2)
NO PREFETCH REQUEST BECAUSE PREFETCH SCORE 2 IS NOT GREATER THAN 20 (MSHR OCC = 2)
NO PREFETCH REQUEST BECAUSE PREFETCH SCORE 2 IS NOT GREATER THAN 20 (MSHR OCC = 2)
NO PREFETCH REQUEST BECAUSE PREFETCH SCORE 2 IS NOT GREATER THAN 20 (MSHR OCC = 2)
NO PREFETCH REQUEST BECAUSE PREFETCH SCORE 2 IS NOT GREATER THAN 20 (MSHR OCC = 2)
NO PREFETCH REQUEST BECAUSE PREFETCH SCORE 2 IS NOT GREATER THAN 20 (MSHR OCC = 2)
NO PREFETCH REQUEST BECAUSE PREFETCH SCORE 2 IS NOT GREATER THAN 20 (MSHR OCC = 2)
NO PREFETCH REQUEST BECAUSE PREFETCH SCORE 2 IS NOT GREATER THAN 20 (MSHR OCC = 2)
NO PREFETCH REQUEST BECAUSE PREFETCH SCORE 2 IS NOT GREATER THAN 20 (MSHR OCC = 2)
NO PREFETCH REQUEST BECAUSE PREFETCH SCORE 2 IS NOT GREATER THAN 20 (MSHR OCC = 2)
NO PREFETCH REQUEST BECAUSE PREFETCH SCORE 2 IS NOT GREATER THAN 20 (MSHR OCC = 2)
NO PREFETCH REQUEST BECAUSE PREFETCH SCORE 2 IS NOT GREATER THAN 20 (MSHR OCC = 2)
NO PREFETCH REQUEST BECAUSE PREFETCH SCORE 2 IS NOT GREATER THAN 20 (MSHR OCC = 2)
NO PREFETCH REQUEST BECAUSE PREFETCH SCORE 2 IS NOT GREATER THAN 20 (MSHR OCC = 2)
NO PREFETCH REQUEST BECAUSE PREFETCH SCORE 2 IS NOT GREATER THAN 20 (MSHR OCC = 2)
NO PREFETCH REQUEST BECAUSE PREFETCH SCORE 2 IS NOT GREATER THAN 20 (MSHR OCC = 2)
NO PREFETCH REQUEST BECAUSE PREFETCH SCORE 2 IS NOT GREATER THAN 20 (MSHR OCC = 2)
NO PREFETCH REQUEST BECAUSE PREFETCH SCORE 2 IS NOT GREATER THAN 20 (MSHR OCC = 2)
NO PREFETCH REQUEST BECAUSE PREFETCH SCORE 2 IS NOT GREATER THAN 20 (MSHR OCC = 2)
NO PREFETCH REQUEST BECAUSE PREFETCH SCORE 2 IS NOT GREATER THAN 20 (MSHR OCC = 2)
NO PREFETCH REQUEST BECAUSE PREFETCH SCORE 2 IS NOT GREATER THAN 20 (MSHR OCC = 2)
NO PREFETCH REQUEST BECAUSE PREFETCH SCORE 2 IS NOT GREATER THAN 20 (MSHR OCC = 2)
NO PREFETCH REQUEST BECAUSE PREFETCH SCORE 2 IS NOT GREATER THAN 20 (MSHR OCC = 2)
NO PREFETCH REQUEST BECAUSE PREFETCH SCORE 2 IS NOT GREATER THAN 20 (MSHR OCC = 2)
NO PREFETCH REQUEST BECAUSE PREFETCH SCORE 2 IS NOT GREATER THAN 20 (MSHR OCC = 2)
NO PREFETCH REQUEST BECAUSE PREFETCH SCORE 2 IS NOT GREATER THAN 20 (MSHR OCC = 2)
NO PREFETCH REQUEST BECAUSE PREFETCH SCORE 2 IS NOT GREATER THAN 20 (MSHR OCC = 2)
NO PREFETCH REQUEST BECAUSE PREFETCH SCORE 2 IS NOT GREATER THAN 20 (MSHR OCC = 2)
NO PREFETCH REQUEST BECAUSE PREFETCH SCORE 2 IS NOT GREATER THAN 20 (MSHR OCC = 2)
NO PREFETCH REQUEST BECAUSE PREFETCH SCORE 2 IS NOT GREATER THAN 20 (MSHR OCC = 2)
NO PREFETCH REQUEST BECAUSE PREFETCH SCORE 2 IS NOT GREATER THAN 20 (MSHR OCC = 2)
NO PREFETCH REQUEST BECAUSE PREFETCH SCORE 2 IS NOT GREATER THAN 20 (MSHR OCC = 2)
NO PREFETCH REQUEST BECAUSE PREFETCH SCORE 2 IS NOT GREATER THAN 20 (MSHR OCC = 2)
NO PREFETCH REQUEST BECAUSE PREFETCH SCORE 2 IS NOT GREATER THAN 20 (MSHR OCC = 2)
NO PREFETCH REQUEST BECAUSE PREFETCH SCORE 2 IS NOT GREATER THAN 20 (MSHR OCC = 2)
NO PREFETCH REQUEST BECAUSE PREFETCH SCORE 2 IS NOT GREATER THAN 20 (MSHR OCC = 2)
NO PREFETCH REQUEST BECAUSE PREFETCH SCORE 2 IS NOT GREATER THAN 20 (MSHR OCC = 2)
NO PREFETCH REQUEST BECAUSE PREFETCH SCORE 2 IS NOT GREATER THAN 20 (MSHR OCC = 2)
NO PREFETCH REQUEST BECAUSE PREFETCH SCORE 2 IS NOT GREATER THAN 20 (MSHR OCC = 2)
NO PREFETCH REQUEST BECAUSE PREFETCH SCORE 2 IS NOT GREATER THAN 20 (MSHR OCC = 2)
NO PREFETCH REQUEST BECAUSE PREFETCH SCORE 2 IS NOT GREATER THAN 20 (MSHR OCC = 2)
NO PREFETCH REQUEST BECAUSE PREFETCH SCORE 2 IS NOT GREATER THAN 20 (MSHR OCC = 2)
NO PREFETCH REQUEST BECAUSE PREFETCH SCORE 2 IS NOT GREATER THAN 20 (MSHR OCC = 2)
NO PREFETCH REQUEST BECAUSE PREFETCH SCORE 2 IS NOT GREATER THAN 20 (MSHR OCC = 2)
NO PREFETCH REQUEST BECAUSE PREFETCH SCORE 2 IS NOT GREATER THAN 20 (MSHR OCC = 2)
NO PREFETCH REQUEST BECAUSE PREFETCH SCORE 2 IS NOT GREATER THAN 20 (MSHR OCC = 2)
NO PREFETCH REQUEST BECAUSE PREFETCH SCORE 2 IS NOT GREATER THAN 20 (MSHR OCC = 2)
NO PREFETCH REQUEST BECAUSE PREFETCH SCORE 2 IS NOT GREATER THAN 20 (MSHR OCC = 2)
NO PREFETCH REQUEST BECAUSE PREFETCH SCORE 2 IS NOT GREATER THAN 20 (MSHR OCC = 2)
NO PREFETCH REQUEST BECAUSE PREFETCH SCORE 2 IS NOT GREATER THAN 20 (MSHR OCC = 2)
NO PREFETCH REQUEST BECAUSE PREFETCH SCORE 2 IS NOT GREATER THAN 20 (MSHR OCC = 2)
NO PREFETCH REQUEST BECAUSE PREFETCH SCORE 2 IS NOT GREATER THAN 20 (MSHR OCC = 2)
NO PREFETCH REQUEST BECAUSE PREFETCH SCORE 2 IS NOT GREATER THAN 20 (MSHR OCC = 2)
NO PREFETCH REQUEST BECAUSE PREFETCH SCORE 2 IS NOT GREATER THAN 20 (MSHR OCC = 2)
NO PREFETCH REQUEST BECAUSE PREFETCH SCORE 2 IS NOT GREATER THAN 20 (MSHR OCC = 2)
NO PREFETCH REQUEST BECAUSE PREFETCH SCORE 2 IS NOT GREATER THAN 20 (MSHR OCC = 2)
NO PREFETCH REQUEST BECAUSE PREFETCH SCORE 2 IS NOT GREATER THAN 20 (MSHR OCC = 2)
NO PREFETCH REQUEST BECAUSE PREFETCH SCORE 2 IS NOT GREATER THAN 20 (MSHR OCC = 2)
NO PREFETCH REQUEST BECAUSE PREFETCH SCORE 2 IS NOT GREATER THAN 20 (MSHR OCC = 2)
NO PREFETCH REQUEST BECAUSE PREFETCH SCORE 2 IS NOT GREATER THAN 20 (MSHR OCC = 2)
NO PREFETCH REQUEST BECAUSE PREFETCH SCORE 2 IS NOT GREATER THAN 20 (MSHR OCC = 2)
NO PREFETCH REQUEST BECAUSE PREFETCH SCORE 2 IS NOT GREATER THAN 20 (MSHR OCC = 2)
NO PREFETCH REQUEST BECAUSE PREFETCH SCORE 2 IS NOT GREATER THAN 20 (MSHR OCC = 2)
NO PREFETCH REQUEST BECAUSE PREFETCH SCORE 2 IS NOT GREATER THAN 20 (MSHR OCC = 2)
NO PREFETCH REQUEST BECAUSE PREFETCH SCORE 2 IS NOT GREATER THAN 20 (MSHR OCC = 2)
NO PREFETCH REQUEST BECAUSE PREFETCH SCORE 2 IS NOT GREATER THAN 20 (MSHR OCC = 2)
NO PREFETCH REQUEST BECAUSE PREFETCH SCORE 2 IS NOT GREATER THAN 20 (MSHR OCC = 2)
NO PREFETCH REQUEST BECAUSE PREFETCH SCORE 2 IS NOT GREATER THAN 20 (MSHR OCC = 2)
NO PREFETCH REQUEST BECAUSE PREFETCH SCORE 2 IS NOT GREATER THAN 20 (MSHR OCC = 2)
NO PREFETCH REQUEST BECAUSE PREFETCH SCORE 2 IS NOT GREATER THAN 20 (MSHR OCC = 2)
NO PREFETCH REQUEST BECAUSE PREFETCH SCORE 2 IS NOT GREATER THAN 20 (MSHR OCC = 2)
NO PREFETCH REQUEST BECAUSE PREFETCH SCORE 2 IS NOT GREATER THAN 20 (MSHR OCC = 2)
NO PREFETCH REQUEST BECAUSE PREFETCH SCORE 2 IS NOT GREATER THAN 20 (MSHR OCC = 2)
NO PREFETCH REQUEST BECAUSE PREFETCH SCORE 2 IS NOT GREATER THAN 20 (MSHR OCC = 2)
NO PREFETCH REQUEST BECAUSE PREFETCH SCORE 2 IS NOT GREATER THAN 20 (MSHR OCC = 2)
NO PREFETCH REQUEST BECAUSE PREFETCH SCORE 2 IS NOT GREATER THAN 20 (MSHR OCC = 2)
NO PREFETCH REQUEST BECAUSE PREFETCH SCORE 2 IS NOT GREATER THAN 20 (MSHR OCC = 2)
NO PREFETCH REQUEST BECAUSE PREFETCH SCORE 2 IS NOT GREATER THAN 20 (MSHR OCC = 2)
NO PREFETCH REQUEST BECAUSE PREFETCH SCORE 2 IS NOT GREATER THAN 20 (MSHR OCC = 2)
NO PREFETCH REQUEST BECAUSE PREFETCH SCORE 2 IS NOT GREATER THAN 20 (MSHR OCC = 2)
NO PREFETCH REQUEST BECAUSE PREFETCH SCORE 2 IS NOT GREATER THAN 20 (MSHR OCC = 2)
NO PREFETCH REQUEST BECAUSE PREFETCH SCORE 2 IS NOT GREATER THAN 20 (MSHR OCC = 2)
NO PREFETCH REQUEST BECAUSE PREFETCH SCORE 2 IS NOT GREATER THAN 20 (MSHR OCC = 2)
NO PREFETCH REQUEST BECAUSE PREFETCH SCORE 2 IS NOT GREATER THAN 20 (MSHR OCC = 2)
NO PREFETCH REQUEST BECAUSE PREFETCH SCORE 2 IS NOT GREATER THAN 20 (MSHR OCC = 2)
NO PREFETCH REQUEST BECAUSE PREFETCH SCORE 2 IS NOT GREATER THAN 20 (MSHR OCC = 2)
NO PREFETCH REQUEST BECAUSE PREFETCH SCORE 2 IS NOT GREATER THAN 20 (MSHR OCC = 2)
NO PREFETCH REQUEST BECAUSE PREFETCH SCORE 2 IS NOT GREATER THAN 20 (MSHR OCC = 2)
NO PREFETCH REQUEST BECAUSE PREFETCH SCORE 2 IS NOT GREATER THAN 20 (MSHR OCC = 2)
NO PREFETCH REQUEST BECAUSE PREFETCH SCORE 2 IS NOT GREATER THAN 20 (MSHR OCC = 2)
NO PREFETCH REQUEST BECAUSE PREFETCH SCORE 2 IS NOT GREATER THAN 20 (MSHR OCC = 2)
NO PREFETCH REQUEST BECAUSE PREFETCH SCORE 2 IS NOT GREATER THAN 20 (MSHR OCC = 2)
NO PREFETCH REQUEST BECAUSE PREFETCH SCORE 2 IS NOT GREATER THAN 20 (MSHR OCC = 2)
NO PREFETCH REQUEST BECAUSE PREFETCH SCORE 2 IS NOT GREATER THAN 20 (MSHR OCC = 2)
NO PREFETCH REQUEST BECAUSE PREFETCH SCORE 2 IS NOT GREATER THAN 20 (MSHR OCC = 2)
NO PREFETCH REQUEST BECAUSE PREFETCH SCORE 2 IS NOT GREATER THAN 20 (MSHR OCC = 2)
NO PREFETCH REQUEST BECAUSE PREFETCH SCORE 2 IS NOT GREATER THAN 20 (MSHR OCC = 2)
NO PREFETCH REQUEST BECAUSE PREFETCH SCORE 2 IS NOT GREATER THAN 20 (MSHR OCC = 2)
NO PREFETCH REQUEST BECAUSE PREFETCH SCORE 2 IS NOT GREATER THAN 20 (MSHR OCC = 2)
NO PREFETCH REQUEST BECAUSE PREFETCH SCORE 2 IS NOT GREATER THAN 20 (MSHR OCC = 2)
NO PREFETCH REQUEST BECAUSE PREFETCH SCORE 2 IS NOT GREATER THAN 20 (MSHR OCC = 2)
NO PREFETCH REQUEST BECAUSE PREFETCH SCORE 2 IS NOT GREATER THAN 20 (MSHR OCC = 2)
NO PREFETCH REQUEST BECAUSE PREFETCH SCORE 2 IS NOT GREATER THAN 20 (MSHR OCC = 2)
NO PREFETCH REQUEST BECAUSE PREFETCH SCORE 2 IS NOT GREATER THAN 20 (MSHR OCC = 2)
NO PREFETCH REQUEST BECAUSE PREFETCH SCORE 2 IS NOT GREATER THAN 20 (MSHR OCC = 2)
NO PREFETCH REQUEST BECAUSE PREFETCH SCORE 2 IS NOT GREATER THAN 20 (MSHR OCC = 2)
NO PREFETCH REQUEST BECAUSE PREFETCH SCORE 2 IS NOT GREATER THAN 20 (MSHR OCC = 2)
NO PREFETCH REQUEST BECAUSE PREFETCH SCORE 2 IS NOT GREATER THAN 20 (MSHR OCC = 2)
NO PREFETCH REQUEST BECAUSE PREFETCH SCORE 2 IS NOT GREATER THAN 20 (MSHR OCC = 2)
NO PREFETCH REQUEST BECAUSE PREFETCH SCORE 2 IS NOT GREATER THAN 20 (MSHR OCC = 2)
NO PREFETCH REQUEST BECAUSE PREFETCH SCORE 2 IS NOT GREATER THAN 20 (MSHR OCC = 2)
NO PREFETCH REQUEST BECAUSE PREFETCH SCORE 2 IS NOT GREATER THAN 20 (MSHR OCC = 2)
NO PREFETCH REQUEST BECAUSE PREFETCH SCORE 2 IS NOT GREATER THAN 20 (MSHR OCC = 2)
NO PREFETCH REQUEST BECAUSE PREFETCH SCORE 2 IS NOT GREATER THAN 20 (MSHR OCC = 2)
NO PREFETCH REQUEST BECAUSE PREFETCH SCORE 2 IS NOT GREATER THAN 20 (MSHR OCC = 2)
NO PREFETCH REQUEST BECAUSE PREFETCH SCORE 2 IS NOT GREATER THAN 20 (MSHR OCC = 2)
NO PREFETCH REQUEST BECAUSE PREFETCH SCORE 2 IS NOT GREATER THAN 20 (MSHR OCC = 2)
NO PREFETCH REQUEST BECAUSE PREFETCH SCORE 2 IS NOT GREATER THAN 20 (MSHR OCC = 2)
NO PREFETCH REQUEST BECAUSE PREFETCH SCORE 2 IS NOT GREATER THAN 20 (MSHR OCC = 2)
NO PREFETCH REQUEST BECAUSE PREFETCH SCORE 2 IS NOT GREATER THAN 20 (MSHR OCC = 2)
NO PREFETCH REQUEST BECAUSE PREFETCH SCORE 2 IS NOT GREATER THAN 20 (MSHR OCC = 2)
NO PREFETCH REQUEST BECAUSE PREFETCH SCORE 2 IS NOT GREATER THAN 20 (MSHR OCC = 2)
NO PREFETCH REQUEST BECAUSE PREFETCH SCORE 2 IS NOT GREATER THAN 20 (MSHR OCC = 2)
NO PREFETCH REQUEST BECAUSE PREFETCH SCORE 2 IS NOT GREATER THAN 20 (MSHR OCC = 2)
NO PREFETCH REQUEST BECAUSE PREFETCH SCORE 2 IS NOT GREATER THAN 20 (MSHR OCC = 2)
NO PREFETCH REQUEST BECAUSE PREFETCH SCORE 2 IS NOT GREATER THAN 20 (MSHR OCC = 2)
NO PREFETCH REQUEST BECAUSE PREFETCH SCORE 2 IS NOT GREATER THAN 20 (MSHR OCC = 2)
NO PREFETCH REQUEST BECAUSE PREFETCH SCORE 2 IS NOT GREATER THAN 20 (MSHR OCC = 2)
NO PREFETCH REQUEST BECAUSE PREFETCH SCORE 2 IS NOT GREATER THAN 20 (MSHR OCC = 2)
NO PREFETCH REQUEST BECAUSE PREFETCH SCORE 2 IS NOT GREATER THAN 20 (MSHR OCC = 2)
NO PREFETCH REQUEST BECAUSE PREFETCH SCORE 2 IS NOT GREATER THAN 20 (MSHR OCC = 2)
NO PREFETCH REQUEST BECAUSE PREFETCH SCORE 2 IS NOT GREATER THAN 20 (MSHR OCC = 2)
NO PREFETCH REQUEST BECAUSE PREFETCH SCORE 2 IS NOT GREATER THAN 20 (MSHR OCC = 2)
NO PREFETCH REQUEST BECAUSE PREFETCH SCORE 2 IS NOT GREATER THAN 20 (MSHR OCC = 2)
NO PREFETCH REQUEST BECAUSE PREFETCH SCORE 2 IS NOT GREATER THAN 20 (MSHR OCC = 2)
NO PREFETCH REQUEST BECAUSE PREFETCH SCORE 2 IS NOT GREATER THAN 20 (MSHR OCC = 2)
NO PREFETCH REQUEST BECAUSE PREFETCH SCORE 2 IS NOT GREATER THAN 20 (MSHR OCC = 2)
NO PREFETCH REQUEST BECAUSE PREFETCH SCORE 2 IS NOT GREATER THAN 20 (MSHR OCC = 2)
NO PREFETCH REQUEST BECAUSE PREFETCH SCORE 2 IS NOT GREATER THAN 20 (MSHR OCC = 2)
NO PREFETCH REQUEST BECAUSE PREFETCH SCORE 2 IS NOT GREATER THAN 20 (MSHR OCC = 2)
NO PREFETCH REQUEST BECAUSE PREFETCH SCORE 2 IS NOT GREATER THAN 20 (MSHR OCC = 2)
NO PREFETCH REQUEST BECAUSE PREFETCH SCORE 2 IS NOT GREATER THAN 20 (MSHR OCC = 2)
NO PREFETCH REQUEST BECAUSE PREFETCH SCORE 2 IS NOT GREATER THAN 20 (MSHR OCC = 2)
NO PREFETCH REQUEST BECAUSE PREFETCH SCORE 2 IS NOT GREATER THAN 20 (MSHR OCC = 2)
NO PREFETCH REQUEST BECAUSE PREFETCH SCORE 2 IS NOT GREATER THAN 20 (MSHR OCC = 2)
NO PREFETCH REQUEST BECAUSE PREFETCH SCORE 2 IS NOT GREATER THAN 20 (MSHR OCC = 2)
NO PREFETCH REQUEST BECAUSE PREFETCH SCORE 2 IS NOT GREATER THAN 20 (MSHR OCC = 2)
NO PREFETCH REQUEST BECAUSE PREFETCH SCORE 2 IS NOT GREATER THAN 20 (MSHR OCC = 2)
NO PREFETCH REQUEST BECAUSE PREFETCH SCORE 2 IS NOT GREATER THAN 20 (MSHR OCC = 2)
NO PREFETCH REQUEST BECAUSE PREFETCH SCORE 2 IS NOT GREATER THAN 20 (MSHR OCC = 2)
NO PREFETCH REQUEST BECAUSE PREFETCH SCORE 2 IS NOT GREATER THAN 20 (MSHR OCC = 2)
NO PREFETCH REQUEST BECAUSE PREFETCH SCORE 2 IS NOT GREATER THAN 20 (MSHR OCC = 2)
NO PREFETCH REQUEST BECAUSE PREFETCH SCORE 2 IS NOT GREATER THAN 20 (MSHR OCC = 2)
NO PREFETCH REQUEST BECAUSE PREFETCH SCORE 2 IS NOT GREATER THAN 20 (MSHR OCC = 2)
NO PREFETCH REQUEST BECAUSE PREFETCH SCORE 2 IS NOT GREATER THAN 20 (MSHR OCC = 2)
NO PREFETCH REQUEST BECAUSE PREFETCH SCORE 2 IS NOT GREATER THAN 20 (MSHR OCC = 2)
NO PREFETCH REQUEST BECAUSE PREFETCH SCORE 2 IS NOT GREATER THAN 20 (MSHR OCC = 2)
NO PREFETCH REQUEST BECAUSE PREFETCH SCORE 2 IS NOT GREATER THAN 20 (MSHR OCC = 2)
NO PREFETCH REQUEST BECAUSE PREFETCH SCORE 2 IS NOT GREATER THAN 20 (MSHR OCC = 2)
NO PREFETCH REQUEST BECAUSE PREFETCH SCORE 2 IS NOT GREATER THAN 20 (MSHR OCC = 2)
NO PREFETCH REQUEST BECAUSE PREFETCH SCORE 2 IS NOT GREATER THAN 20 (MSHR OCC = 2)
NO PREFETCH REQUEST BECAUSE PREFETCH SCORE 2 IS NOT GREATER THAN 20 (MSHR OCC = 2)
NO PREFETCH REQUEST BECAUSE PREFETCH SCORE 2 IS NOT GREATER THAN 20 (MSHR OCC = 2)
NO PREFETCH REQUEST BECAUSE PREFETCH SCORE 2 IS NOT GREATER THAN 20 (MSHR OCC = 2)
NO PREFETCH REQUEST BECAUSE PREFETCH SCORE 2 IS NOT GREATER THAN 20 (MSHR OCC = 2)
NO PREFETCH REQUEST BECAUSE PREFETCH SCORE 2 IS NOT GREATER THAN 20 (MSHR OCC = 2)
NO PREFETCH REQUEST BECAUSE PREFETCH SCORE 2 IS NOT GREATER THAN 20 (MSHR OCC = 2)
NO PREFETCH REQUEST BECAUSE PREFETCH SCORE 2 IS NOT GREATER THAN 20 (MSHR OCC = 2)
NO PREFETCH REQUEST BECAUSE PREFETCH SCORE 2 IS NOT GREATER THAN 20 (MSHR OCC = 2)
NO PREFETCH REQUEST BECAUSE PREFETCH SCORE 2 IS NOT GREATER THAN 20 (MSHR OCC = 2)
NO PREFETCH REQUEST BECAUSE PREFETCH SCORE 2 IS NOT GREATER THAN 20 (MSHR OCC = 2)
NO PREFETCH REQUEST BECAUSE PREFETCH SCORE 2 IS NOT GREATER THAN 20 (MSHR OCC = 2)
NO PREFETCH REQUEST BECAUSE PREFETCH SCORE 2 IS NOT GREATER THAN 20 (MSHR OCC = 2)
NO PREFETCH REQUEST BECAUSE PREFETCH SCORE 2 IS NOT GREATER THAN 20 (MSHR OCC = 2)
NO PREFETCH REQUEST BECAUSE PREFETCH SCORE 2 IS NOT GREATER THAN 20 (MSHR OCC = 2)
NO PREFETCH REQUEST BECAUSE PREFETCH SCORE 2 IS NOT GREATER THAN 20 (MSHR OCC = 2)
NO PREFETCH REQUEST BECAUSE PREFETCH SCORE 2 IS NOT GREATER THAN 20 (MSHR OCC = 2)
NO PREFETCH REQUEST BECAUSE PREFETCH SCORE 2 IS NOT GREATER THAN 20 (MSHR OCC = 2)
NO PREFETCH REQUEST BECAUSE PREFETCH SCORE 2 IS NOT GREATER THAN 20 (MSHR OCC = 2)
NO PREFETCH REQUEST BECAUSE PREFETCH SCORE 2 IS NOT GREATER THAN 20 (MSHR OCC = 2)
NO PREFETCH REQUEST BECAUSE PREFETCH SCORE 2 IS NOT GREATER THAN 20 (MSHR OCC = 2)
NO PREFETCH REQUEST BECAUSE PREFETCH SCORE 2 IS NOT GREATER THAN 20 (MSHR OCC = 2)
NO PREFETCH REQUEST BECAUSE PREFETCH SCORE 2 IS NOT GREATER THAN 20 (MSHR OCC = 2)
NO PREFETCH REQUEST BECAUSE PREFETCH SCORE 2 IS NOT GREATER THAN 20 (MSHR OCC = 2)
NO PREFETCH REQUEST BECAUSE PREFETCH SCORE 2 IS NOT GREATER THAN 20 (MSHR OCC = 2)
NO PREFETCH REQUEST BECAUSE PREFETCH SCORE 2 IS NOT GREATER THAN 20 (MSHR OCC = 2)
NO PREFETCH REQUEST BECAUSE PREFETCH SCORE 2 IS NOT GREATER THAN 20 (MSHR OCC = 2)
NO PREFETCH REQUEST BECAUSE PREFETCH SCORE 2 IS NOT GREATER THAN 20 (MSHR OCC = 2)
NO PREFETCH REQUEST BECAUSE PREFETCH SCORE 2 IS NOT GREATER THAN 20 (MSHR OCC = 2)
NO PREFETCH REQUEST BECAUSE PREFETCH SCORE 2 IS NOT GREATER THAN 20 (MSHR OCC = 2)
NO PREFETCH REQUEST BECAUSE PREFETCH SCORE 2 IS NOT GREATER THAN 20 (MSHR OCC = 2)
NO PREFETCH REQUEST BECAUSE PREFETCH SCORE 2 IS NOT GREATER THAN 20 (MSHR OCC = 2)
NO PREFETCH REQUEST BECAUSE PREFETCH SCORE 2 IS NOT GREATER THAN 20 (MSHR OCC = 2)
NO PREFETCH REQUEST BECAUSE PREFETCH SCORE 2 IS NOT GREATER THAN 20 (MSHR OCC = 2)
NO PREFETCH REQUEST BECAUSE PREFETCH SCORE 2 IS NOT GREATER THAN 20 (MSHR OCC = 2)
NO PREFETCH REQUEST BECAUSE PREFETCH SCORE 2 IS NOT GREATER THAN 20 (MSHR OCC = 2)
NO PREFETCH REQUEST BECAUSE PREFETCH SCORE 2 IS NOT GREATER THAN 20 (MSHR OCC = 2)
NO PREFETCH REQUEST BECAUSE PREFETCH SCORE 2 IS NOT GREATER THAN 20 (MSHR OCC = 2)
NO PREFETCH REQUEST BECAUSE PREFETCH SCORE 2 IS NOT GREATER THAN 20 (MSHR OCC = 2)
NO PREFETCH REQUEST BECAUSE PREFETCH SCORE 2 IS NOT GREATER THAN 20 (MSHR OCC = 2)
NO PREFETCH REQUEST BECAUSE PREFETCH SCORE 2 IS NOT GREATER THAN 20 (MSHR OCC = 2)
NO PREFETCH REQUEST BECAUSE PREFETCH SCORE 2 IS NOT GREATER THAN 20 (MSHR OCC = 2)
NO PREFETCH REQUEST BECAUSE PREFETCH SCORE 2 IS NOT GREATER THAN 20 (MSHR OCC = 2)
NO PREFETCH REQUEST BECAUSE PREFETCH SCORE 2 IS NOT GREATER THAN 20 (MSHR OCC = 2)
NO PREFETCH REQUEST BECAUSE PREFETCH SCORE 2 IS NOT GREATER THAN 20 (MSHR OCC = 2)
NO PREFETCH REQUEST BECAUSE PREFETCH SCORE 2 IS NOT GREATER THAN 20 (MSHR OCC = 2)
NO PREFETCH REQUEST BECAUSE PREFETCH SCORE 2 IS NOT GREATER THAN 20 (MSHR OCC = 2)
NO PREFETCH REQUEST BECAUSE PREFETCH SCORE 2 IS NOT GREATER THAN 20 (MSHR OCC = 2)
NO PREFETCH REQUEST BECAUSE PREFETCH SCORE 2 IS NOT GREATER THAN 20 (MSHR OCC = 2)
NO PREFETCH REQUEST BECAUSE PREFETCH SCORE 2 IS NOT GREATER THAN 20 (MSHR OCC = 2)
NO PREFETCH REQUEST BECAUSE PREFETCH SCORE 2 IS NOT GREATER THAN 20 (MSHR OCC = 2)
NO PREFETCH REQUEST BECAUSE PREFETCH SCORE 2 IS NOT GREATER THAN 20 (MSHR OCC = 2)
NO PREFETCH REQUEST BECAUSE PREFETCH SCORE 2 IS NOT GREATER THAN 20 (MSHR OCC = 2)
NO PREFETCH REQUEST BECAUSE PREFETCH SCORE 2 IS NOT GREATER THAN 20 (MSHR OCC = 2)
NO PREFETCH REQUEST BECAUSE PREFETCH SCORE 2 IS NOT GREATER THAN 20 (MSHR OCC = 2)
NO PREFETCH REQUEST BECAUSE PREFETCH SCORE 2 IS NOT GREATER THAN 20 (MSHR OCC = 2)
NO PREFETCH REQUEST BECAUSE PREFETCH SCORE 2 IS NOT GREATER THAN 20 (MSHR OCC = 2)
NO PREFETCH REQUEST BECAUSE PREFETCH SCORE 2 IS NOT GREATER THAN 20 (MSHR OCC = 2)
NO PREFETCH REQUEST BECAUSE PREFETCH SCORE 2 IS NOT GREATER THAN 20 (MSHR OCC = 2)
NO PREFETCH REQUEST BECAUSE PREFETCH SCORE 2 IS NOT GREATER THAN 20 (MSHR OCC = 2)
NO PREFETCH REQUEST BECAUSE PREFETCH SCORE 2 IS NOT GREATER THAN 20 (MSHR OCC = 2)
NO PREFETCH REQUEST BECAUSE PREFETCH SCORE 2 IS NOT GREATER THAN 20 (MSHR OCC = 2)
NO PREFETCH REQUEST BECAUSE PREFETCH SCORE 2 IS NOT GREATER THAN 20 (MSHR OCC = 2)
NO PREFETCH REQUEST BECAUSE PREFETCH SCORE 2 IS NOT GREATER THAN 20 (MSHR OCC = 2)
NO PREFETCH REQUEST BECAUSE PREFETCH SCORE 2 IS NOT GREATER THAN 20 (MSHR OCC = 2)
NO PREFETCH REQUEST BECAUSE PREFETCH SCORE 2 IS NOT GREATER THAN 20 (MSHR OCC = 2)
NO PREFETCH REQUEST BECAUSE PREFETCH SCORE 2 IS NOT GREATER THAN 20 (MSHR OCC = 2)
NO PREFETCH REQUEST BECAUSE PREFETCH SCORE 2 IS NOT GREATER THAN 20 (MSHR OCC = 2)
NO PREFETCH REQUEST BECAUSE PREFETCH SCORE 2 IS NOT GREATER THAN 20 (MSHR OCC = 2)
NO PREFETCH REQUEST BECAUSE PREFETCH SCORE 2 IS NOT GREATER THAN 20 (MSHR OCC = 2)
NO PREFETCH REQUEST BECAUSE PREFETCH SCORE 2 IS NOT GREATER THAN 20 (MSHR OCC = 2)
NO PREFETCH REQUEST BECAUSE PREFETCH SCORE 2 IS NOT GREATER THAN 20 (MSHR OCC = 2)
NO PREFETCH REQUEST BECAUSE PREFETCH SCORE 2 IS NOT GREATER THAN 20 (MSHR OCC = 2)
NO PREFETCH REQUEST BECAUSE PREFETCH SCORE 2 IS NOT GREATER THAN 20 (MSHR OCC = 2)
NO PREFETCH REQUEST BECAUSE PREFETCH SCORE 2 IS NOT GREATER THAN 20 (MSHR OCC = 2)
NO PREFETCH REQUEST BECAUSE PREFETCH SCORE 2 IS NOT GREATER THAN 20 (MSHR OCC = 2)
NO PREFETCH REQUEST BECAUSE PREFETCH SCORE 2 IS NOT GREATER THAN 20 (MSHR OCC = 2)
NO PREFETCH REQUEST BECAUSE PREFETCH SCORE 2 IS NOT GREATER THAN 20 (MSHR OCC = 2)
NO PREFETCH REQUEST BECAUSE PREFETCH SCORE 2 IS NOT GREATER THAN 20 (MSHR OCC = 2)
NO PREFETCH REQUEST BECAUSE PREFETCH SCORE 2 IS NOT GREATER THAN 20 (MSHR OCC = 2)
NO PREFETCH REQUEST BECAUSE PREFETCH SCORE 2 IS NOT GREATER THAN 20 (MSHR OCC = 2)
NO PREFETCH REQUEST BECAUSE PREFETCH SCORE 2 IS NOT GREATER THAN 20 (MSHR OCC = 2)
NO PREFETCH REQUEST BECAUSE PREFETCH SCORE 2 IS NOT GREATER THAN 20 (MSHR OCC = 2)
NO PREFETCH REQUEST BECAUSE PREFETCH SCORE 2 IS NOT GREATER THAN 20 (MSHR OCC = 2)
NO PREFETCH REQUEST BECAUSE PREFETCH SCORE 2 IS NOT GREATER THAN 20 (MSHR OCC = 2)
NO PREFETCH REQUEST BECAUSE PREFETCH SCORE 2 IS NOT GREATER THAN 20 (MSHR OCC = 2)
NO PREFETCH REQUEST BECAUSE PREFETCH SCORE 2 IS NOT GREATER THAN 20 (MSHR OCC = 2)
NO PREFETCH REQUEST BECAUSE PREFETCH SCORE 2 IS NOT GREATER THAN 20 (MSHR OCC = 2)
NO PREFETCH REQUEST BECAUSE PREFETCH SCORE 2 IS NOT GREATER THAN 20 (MSHR OCC = 2)
NO PREFETCH REQUEST BECAUSE PREFETCH SCORE 2 IS NOT GREATER THAN 20 (MSHR OCC = 2)
NO PREFETCH REQUEST BECAUSE PREFETCH SCORE 2 IS NOT GREATER THAN 20 (MSHR OCC = 2)
NO PREFETCH REQUEST BECAUSE PREFETCH SCORE 2 IS NOT GREATER THAN 20 (MSHR OCC = 2)
NO PREFETCH REQUEST BECAUSE PREFETCH SCORE 2 IS NOT GREATER THAN 20 (MSHR OCC = 2)
NO PREFETCH REQUEST BECAUSE PREFETCH SCORE 2 IS NOT GREATER THAN 20 (MSHR OCC = 2)
NO PREFETCH REQUEST BECAUSE PREFETCH SCORE 2 IS NOT GREATER THAN 20 (MSHR OCC = 2)
NO PREFETCH REQUEST BECAUSE PREFETCH SCORE 2 IS NOT GREATER THAN 20 (MSHR OCC = 2)
NO PREFETCH REQUEST BECAUSE PREFETCH SCORE 2 IS NOT GREATER THAN 20 (MSHR OCC = 2)
NO PREFETCH REQUEST BECAUSE PREFETCH SCORE 2 IS NOT GREATER THAN 20 (MSHR OCC = 2)
NO PREFETCH REQUEST BECAUSE PREFETCH SCORE 2 IS NOT GREATER THAN 20 (MSHR OCC = 2)
NO PREFETCH REQUEST BECAUSE PREFETCH SCORE 2 IS NOT GREATER THAN 20 (MSHR OCC = 2)
NO PREFETCH REQUEST BECAUSE PREFETCH SCORE 2 IS NOT GREATER THAN 20 (MSHR OCC = 2)
NO PREFETCH REQUEST BECAUSE PREFETCH SCORE 2 IS NOT GREATER THAN 20 (MSHR OCC = 2)
NO PREFETCH REQUEST BECAUSE PREFETCH SCORE 2 IS NOT GREATER THAN 20 (MSHR OCC = 2)
NO PREFETCH REQUEST BECAUSE PREFETCH SCORE 2 IS NOT GREATER THAN 20 (MSHR OCC = 2)
NO PREFETCH REQUEST BECAUSE PREFETCH SCORE 2 IS NOT GREATER THAN 20 (MSHR OCC = 2)
NO PREFETCH REQUEST BECAUSE PREFETCH SCORE 2 IS NOT GREATER THAN 20 (MSHR OCC = 2)
NO PREFETCH REQUEST BECAUSE PREFETCH SCORE 2 IS NOT GREATER THAN 20 (MSHR OCC = 2)
NO PREFETCH REQUEST BECAUSE PREFETCH SCORE 2 IS NOT GREATER THAN 20 (MSHR OCC = 2)
NO PREFETCH REQUEST BECAUSE PREFETCH SCORE 2 IS NOT GREATER THAN 20 (MSHR OCC = 2)
NO PREFETCH REQUEST BECAUSE PREFETCH SCORE 2 IS NOT GREATER THAN 20 (MSHR OCC = 2)
NO PREFETCH REQUEST BECAUSE PREFETCH SCORE 2 IS NOT GREATER THAN 20 (MSHR OCC = 2)
NO PREFETCH REQUEST BECAUSE PREFETCH SCORE 2 IS NOT GREATER THAN 20 (MSHR OCC = 2)
NO PREFETCH REQUEST BECAUSE PREFETCH SCORE 2 IS NOT GREATER THAN 20 (MSHR OCC = 2)
NO PREFETCH REQUEST BECAUSE PREFETCH SCORE 2 IS NOT GREATER THAN 20 (MSHR OCC = 2)
NO PREFETCH REQUEST BECAUSE PREFETCH SCORE 2 IS NOT GREATER THAN 20 (MSHR OCC = 2)
NO PREFETCH REQUEST BECAUSE PREFETCH SCORE 2 IS NOT GREATER THAN 20 (MSHR OCC = 2)
NO PREFETCH REQUEST BECAUSE PREFETCH SCORE 2 IS NOT GREATER THAN 20 (MSHR OCC = 2)
NO PREFETCH REQUEST BECAUSE PREFETCH SCORE 2 IS NOT GREATER THAN 20 (MSHR OCC = 2)
NO PREFETCH REQUEST BECAUSE PREFETCH SCORE 2 IS NOT GREATER THAN 20 (MSHR OCC = 2)
NO PREFETCH REQUEST BECAUSE PREFETCH SCORE 2 IS NOT GREATER THAN 20 (MSHR OCC = 2)
NO PREFETCH REQUEST BECAUSE PREFETCH SCORE 2 IS NOT GREATER THAN 20 (MSHR OCC = 2)
NO PREFETCH REQUEST BECAUSE PREFETCH SCORE 2 IS NOT GREATER THAN 20 (MSHR OCC = 2)
NO PREFETCH REQUEST BECAUSE PREFETCH SCORE 2 IS NOT GREATER THAN 20 (MSHR OCC = 2)
NO PREFETCH REQUEST BECAUSE PREFETCH SCORE 2 IS NOT GREATER THAN 20 (MSHR OCC = 2)
NO PREFETCH REQUEST BECAUSE PREFETCH SCORE 2 IS NOT GREATER THAN 20 (MSHR OCC = 2)
NO PREFETCH REQUEST BECAUSE PREFETCH SCORE 2 IS NOT GREATER THAN 20 (MSHR OCC = 2)
NO PREFETCH REQUEST BECAUSE PREFETCH SCORE 2 IS NOT GREATER THAN 20 (MSHR OCC = 2)
NO PREFETCH REQUEST BECAUSE PREFETCH SCORE 2 IS NOT GREATER THAN 20 (MSHR OCC = 2)
NO PREFETCH REQUEST BECAUSE PREFETCH SCORE 2 IS NOT GREATER THAN 20 (MSHR OCC = 2)
NO PREFETCH REQUEST BECAUSE PREFETCH SCORE 2 IS NOT GREATER THAN 20 (MSHR OCC = 2)
NO PREFETCH REQUEST BECAUSE PREFETCH SCORE 2 IS NOT GREATER THAN 20 (MSHR OCC = 2)
NO PREFETCH REQUEST BECAUSE PREFETCH SCORE 2 IS NOT GREATER THAN 20 (MSHR OCC = 2)
NO PREFETCH REQUEST BECAUSE PREFETCH SCORE 2 IS NOT GREATER THAN 20 (MSHR OCC = 2)
NO PREFETCH REQUEST BECAUSE PREFETCH SCORE 2 IS NOT GREATER THAN 20 (MSHR OCC = 2)
NO PREFETCH REQUEST BECAUSE PREFETCH SCORE 2 IS NOT GREATER THAN 20 (MSHR OCC = 2)
NO PREFETCH REQUEST BECAUSE PREFETCH SCORE 2 IS NOT GREATER THAN 20 (MSHR OCC = 2)
NO PREFETCH REQUEST BECAUSE PREFETCH SCORE 2 IS NOT GREATER THAN 20 (MSHR OCC = 2)
NO PREFETCH REQUEST BECAUSE PREFETCH SCORE 2 IS NOT GREATER THAN 20 (MSHR OCC = 2)
NO PREFETCH REQUEST BECAUSE PREFETCH SCORE 2 IS NOT GREATER THAN 20 (MSHR OCC = 2)
NO PREFETCH REQUEST BECAUSE PREFETCH SCORE 2 IS NOT GREATER THAN 20 (MSHR OCC = 2)
NO PREFETCH REQUEST BECAUSE PREFETCH SCORE 2 IS NOT GREATER THAN 20 (MSHR OCC = 2)
NO PREFETCH REQUEST BECAUSE PREFETCH SCORE 2 IS NOT GREATER THAN 20 (MSHR OCC = 2)
NO PREFETCH REQUEST BECAUSE PREFETCH SCORE 2 IS NOT GREATER THAN 20 (MSHR OCC = 2)
OFFSET CHANGED FROM 1 TO 4
NO PREFETCH REQUEST BECAUSE PREFETCH SCORE 3 IS NOT GREATER THAN 20 (MSHR OCC = 2)
NO PREFETCH REQUEST BECAUSE PREFETCH SCORE 3 IS NOT GREATER THAN 20 (MSHR OCC = 2)
NO PREFETCH REQUEST BECAUSE PREFETCH SCORE 3 IS NOT GREATER THAN 20 (MSHR OCC = 2)
NO PREFETCH REQUEST BECAUSE PREFETCH SCORE 3 IS NOT GREATER THAN 20 (MSHR OCC = 2)
NO PREFETCH REQUEST BECAUSE PREFETCH SCORE 3 IS NOT GREATER THAN 20 (MSHR OCC = 2)
NO PREFETCH REQUEST BECAUSE PREFETCH SCORE 3 IS NOT GREATER THAN 20 (MSHR OCC = 2)
NO PREFETCH REQUEST BECAUSE PREFETCH SCORE 3 IS NOT GREATER THAN 20 (MSHR OCC = 2)
NO PREFETCH REQUEST BECAUSE PREFETCH SCORE 3 IS NOT GREATER THAN 20 (MSHR OCC = 2)
NO PREFETCH REQUEST BECAUSE PREFETCH SCORE 3 IS NOT GREATER THAN 20 (MSHR OCC = 2)
NO PREFETCH REQUEST BECAUSE PREFETCH SCORE 3 IS NOT GREATER THAN 20 (MSHR OCC = 2)
NO PREFETCH REQUEST BECAUSE PREFETCH SCORE 3 IS NOT GREATER THAN 20 (MSHR OCC = 2)
NO PREFETCH REQUEST BECAUSE PREFETCH SCORE 3 IS NOT GREATER THAN 20 (MSHR OCC = 2)
NO PREFETCH REQUEST BECAUSE PREFETCH SCORE 3 IS NOT GREATER THAN 20 (MSHR OCC = 2)
NO PREFETCH REQUEST BECAUSE PREFETCH SCORE 3 IS NOT GREATER THAN 20 (MSHR OCC = 2)
NO PREFETCH REQUEST BECAUSE PREFETCH SCORE 3 IS NOT GREATER THAN 20 (MSHR OCC = 2)
NO PREFETCH REQUEST BECAUSE PREFETCH SCORE 3 IS NOT GREATER THAN 20 (MSHR OCC = 2)
NO PREFETCH REQUEST BECAUSE PREFETCH SCORE 3 IS NOT GREATER THAN 20 (MSHR OCC = 2)
NO PREFETCH REQUEST BECAUSE PREFETCH SCORE 3 IS NOT GREATER THAN 20 (MSHR OCC = 2)
NO PREFETCH REQUEST BECAUSE PREFETCH SCORE 3 IS NOT GREATER THAN 20 (MSHR OCC = 2)
NO PREFETCH REQUEST BECAUSE PREFETCH SCORE 3 IS NOT GREATER THAN 20 (MSHR OCC = 2)
NO PREFETCH REQUEST BECAUSE PREFETCH SCORE 3 IS NOT GREATER THAN 20 (MSHR OCC = 2)
NO PREFETCH REQUEST BECAUSE PREFETCH SCORE 3 IS NOT GREATER THAN 20 (MSHR OCC = 2)
NO PREFETCH REQUEST BECAUSE PREFETCH SCORE 3 IS NOT GREATER THAN 20 (MSHR OCC = 2)
NO PREFETCH REQUEST BECAUSE PREFETCH SCORE 3 IS NOT GREATER THAN 20 (MSHR OCC = 2)
NO PREFETCH REQUEST BECAUSE PREFETCH SCORE 3 IS NOT GREATER THAN 20 (MSHR OCC = 2)
NO PREFETCH REQUEST BECAUSE PREFETCH SCORE 3 IS NOT GREATER THAN 20 (MSHR OCC = 2)
NO PREFETCH REQUEST BECAUSE PREFETCH SCORE 3 IS NOT GREATER THAN 20 (MSHR OCC = 2)
NO PREFETCH REQUEST BECAUSE PREFETCH SCORE 3 IS NOT GREATER THAN 20 (MSHR OCC = 2)
NO PREFETCH REQUEST BECAUSE PREFETCH SCORE 3 IS NOT GREATER THAN 20 (MSHR OCC = 2)
NO PREFETCH REQUEST BECAUSE PREFETCH SCORE 3 IS NOT GREATER THAN 20 (MSHR OCC = 2)
NO PREFETCH REQUEST BECAUSE PREFETCH SCORE 3 IS NOT GREATER THAN 20 (MSHR OCC = 2)
NO PREFETCH REQUEST BECAUSE PREFETCH SCORE 3 IS NOT GREATER THAN 20 (MSHR OCC = 2)
NO PREFETCH REQUEST BECAUSE PREFETCH SCORE 3 IS NOT GREATER THAN 20 (MSHR OCC = 2)
NO PREFETCH REQUEST BECAUSE PREFETCH SCORE 3 IS NOT GREATER THAN 20 (MSHR OCC = 2)
NO PREFETCH REQUEST BECAUSE PREFETCH SCORE 3 IS NOT GREATER THAN 20 (MSHR OCC = 2)
NO PREFETCH REQUEST BECAUSE PREFETCH SCORE 3 IS NOT GREATER THAN 20 (MSHR OCC = 2)
NO PREFETCH REQUEST BECAUSE PREFETCH SCORE 3 IS NOT GREATER THAN 20 (MSHR OCC = 2)
NO PREFETCH REQUEST BECAUSE PREFETCH SCORE 3 IS NOT GREATER THAN 20 (MSHR OCC = 2)
NO PREFETCH REQUEST BECAUSE PREFETCH SCORE 3 IS NOT GREATER THAN 20 (MSHR OCC = 2)
NO PREFETCH REQUEST BECAUSE PREFETCH SCORE 3 IS NOT GREATER THAN 20 (MSHR OCC = 2)
NO PREFETCH REQUEST BECAUSE PREFETCH SCORE 3 IS NOT GREATER THAN 20 (MSHR OCC = 2)
NO PREFETCH REQUEST BECAUSE PREFETCH SCORE 3 IS NOT GREATER THAN 20 (MSHR OCC = 2)
NO PREFETCH REQUEST BECAUSE PREFETCH SCORE 3 IS NOT GREATER THAN 20 (MSHR OCC = 2)
NO PREFETCH REQUEST BECAUSE PREFETCH SCORE 3 IS NOT GREATER THAN 20 (MSHR OCC = 2)
NO PREFETCH REQUEST BECAUSE PREFETCH SCORE 3 IS NOT GREATER THAN 20 (MSHR OCC = 2)
NO PREFETCH REQUEST BECAUSE PREFETCH SCORE 3 IS NOT GREATER THAN 20 (MSHR OCC = 2)
NO PREFETCH REQUEST BECAUSE PREFETCH SCORE 3 IS NOT GREATER THAN 20 (MSHR OCC = 2)
NO PREFETCH REQUEST BECAUSE PREFETCH SCORE 3 IS NOT GREATER THAN 20 (MSHR OCC = 2)
NO PREFETCH REQUEST BECAUSE PREFETCH SCORE 3 IS NOT GREATER THAN 20 (MSHR OCC = 2)
NO PREFETCH REQUEST BECAUSE PREFETCH SCORE 3 IS NOT GREATER THAN 20 (MSHR OCC = 2)
NO PREFETCH REQUEST BECAUSE PREFETCH SCORE 3 IS NOT GREATER THAN 20 (MSHR OCC = 2)
NO PREFETCH REQUEST BECAUSE PREFETCH SCORE 3 IS NOT GREATER THAN 20 (MSHR OCC = 2)
NO PREFETCH REQUEST BECAUSE PREFETCH SCORE 3 IS NOT GREATER THAN 20 (MSHR OCC = 2)
NO PREFETCH REQUEST BECAUSE PREFETCH SCORE 3 IS NOT GREATER THAN 20 (MSHR OCC = 2)
NO PREFETCH REQUEST BECAUSE PREFETCH SCORE 3 IS NOT GREATER THAN 20 (MSHR OCC = 2)
NO PREFETCH REQUEST BECAUSE PREFETCH SCORE 3 IS NOT GREATER THAN 20 (MSHR OCC = 2)
NO PREFETCH REQUEST BECAUSE PREFETCH SCORE 3 IS NOT GREATER THAN 20 (MSHR OCC = 2)
NO PREFETCH REQUEST BECAUSE PREFETCH SCORE 3 IS NOT GREATER THAN 20 (MSHR OCC = 2)
NO PREFETCH REQUEST BECAUSE PREFETCH SCORE 3 IS NOT GREATER THAN 20 (MSHR OCC = 2)
NO PREFETCH REQUEST BECAUSE PREFETCH SCORE 3 IS NOT GREATER THAN 20 (MSHR OCC = 2)
NO PREFETCH REQUEST BECAUSE PREFETCH SCORE 3 IS NOT GREATER THAN 20 (MSHR OCC = 2)
NO PREFETCH REQUEST BECAUSE PREFETCH SCORE 3 IS NOT GREATER THAN 20 (MSHR OCC = 2)
NO PREFETCH REQUEST BECAUSE PREFETCH SCORE 3 IS NOT GREATER THAN 20 (MSHR OCC = 2)
NO PREFETCH REQUEST BECAUSE PREFETCH SCORE 3 IS NOT GREATER THAN 20 (MSHR OCC = 2)
NO PREFETCH REQUEST BECAUSE PREFETCH SCORE 3 IS NOT GREATER THAN 20 (MSHR OCC = 2)
NO PREFETCH REQUEST BECAUSE PREFETCH SCORE 3 IS NOT GREATER THAN 20 (MSHR OCC = 2)
NO PREFETCH REQUEST BECAUSE PREFETCH SCORE 3 IS NOT GREATER THAN 20 (MSHR OCC = 2)
NO PREFETCH REQUEST BECAUSE PREFETCH SCORE 3 IS NOT GREATER THAN 20 (MSHR OCC = 2)
NO PREFETCH REQUEST BECAUSE PREFETCH SCORE 3 IS NOT GREATER THAN 20 (MSHR OCC = 2)
NO PREFETCH REQUEST BECAUSE PREFETCH SCORE 3 IS NOT GREATER THAN 20 (MSHR OCC = 2)
NO PREFETCH REQUEST BECAUSE PREFETCH SCORE 3 IS NOT GREATER THAN 20 (MSHR OCC = 2)
NO PREFETCH REQUEST BECAUSE PREFETCH SCORE 3 IS NOT GREATER THAN 20 (MSHR OCC = 2)
NO PREFETCH REQUEST BECAUSE PREFETCH SCORE 3 IS NOT GREATER THAN 20 (MSHR OCC = 2)
NO PREFETCH REQUEST BECAUSE PREFETCH SCORE 3 IS NOT GREATER THAN 20 (MSHR OCC = 2)
NO PREFETCH REQUEST BECAUSE PREFETCH SCORE 3 IS NOT GREATER THAN 20 (MSHR OCC = 2)
NO PREFETCH REQUEST BECAUSE PREFETCH SCORE 3 IS NOT GREATER THAN 20 (MSHR OCC = 2)
NO PREFETCH REQUEST BECAUSE PREFETCH SCORE 3 IS NOT GREATER THAN 20 (MSHR OCC = 2)
NO PREFETCH REQUEST BECAUSE PREFETCH SCORE 3 IS NOT GREATER THAN 20 (MSHR OCC = 2)
NO PREFETCH REQUEST BECAUSE PREFETCH SCORE 3 IS NOT GREATER THAN 20 (MSHR OCC = 2)
NO PREFETCH REQUEST BECAUSE PREFETCH SCORE 3 IS NOT GREATER THAN 20 (MSHR OCC = 2)
NO PREFETCH REQUEST BECAUSE PREFETCH SCORE 3 IS NOT GREATER THAN 20 (MSHR OCC = 2)
NO PREFETCH REQUEST BECAUSE PREFETCH SCORE 3 IS NOT GREATER THAN 20 (MSHR OCC = 2)
NO PREFETCH REQUEST BECAUSE PREFETCH SCORE 3 IS NOT GREATER THAN 20 (MSHR OCC = 2)
NO PREFETCH REQUEST BECAUSE PREFETCH SCORE 3 IS NOT GREATER THAN 20 (MSHR OCC = 2)
NO PREFETCH REQUEST BECAUSE PREFETCH SCORE 3 IS NOT GREATER THAN 20 (MSHR OCC = 2)
NO PREFETCH REQUEST BECAUSE PREFETCH SCORE 3 IS NOT GREATER THAN 20 (MSHR OCC = 2)
NO PREFETCH REQUEST BECAUSE PREFETCH SCORE 3 IS NOT GREATER THAN 20 (MSHR OCC = 2)
NO PREFETCH REQUEST BECAUSE PREFETCH SCORE 3 IS NOT GREATER THAN 20 (MSHR OCC = 2)
NO PREFETCH REQUEST BECAUSE PREFETCH SCORE 3 IS NOT GREATER THAN 20 (MSHR OCC = 2)
NO PREFETCH REQUEST BECAUSE PREFETCH SCORE 3 IS NOT GREATER THAN 20 (MSHR OCC = 2)
NO PREFETCH REQUEST BECAUSE PREFETCH SCORE 3 IS NOT GREATER THAN 20 (MSHR OCC = 2)
NO PREFETCH REQUEST BECAUSE PREFETCH SCORE 3 IS NOT GREATER THAN 20 (MSHR OCC = 2)
NO PREFETCH REQUEST BECAUSE PREFETCH SCORE 3 IS NOT GREATER THAN 20 (MSHR OCC = 2)
NO PREFETCH REQUEST BECAUSE PREFETCH SCORE 3 IS NOT GREATER THAN 20 (MSHR OCC = 2)
NO PREFETCH REQUEST BECAUSE PREFETCH SCORE 3 IS NOT GREATER THAN 20 (MSHR OCC = 2)
NO PREFETCH REQUEST BECAUSE PREFETCH SCORE 3 IS NOT GREATER THAN 20 (MSHR OCC = 2)
NO PREFETCH REQUEST BECAUSE PREFETCH SCORE 3 IS NOT GREATER THAN 20 (MSHR OCC = 2)
NO PREFETCH REQUEST BECAUSE PREFETCH SCORE 3 IS NOT GREATER THAN 20 (MSHR OCC = 2)
NO PREFETCH REQUEST BECAUSE PREFETCH SCORE 3 IS NOT GREATER THAN 20 (MSHR OCC = 2)
NO PREFETCH REQUEST BECAUSE PREFETCH SCORE 3 IS NOT GREATER THAN 20 (MSHR OCC = 2)
NO PREFETCH REQUEST BECAUSE PREFETCH SCORE 3 IS NOT GREATER THAN 20 (MSHR OCC = 2)
NO PREFETCH REQUEST BECAUSE PREFETCH SCORE 3 IS NOT GREATER THAN 20 (MSHR OCC = 2)
NO PREFETCH REQUEST BECAUSE PREFETCH SCORE 3 IS NOT GREATER THAN 20 (MSHR OCC = 2)
NO PREFETCH REQUEST BECAUSE PREFETCH SCORE 3 IS NOT GREATER THAN 20 (MSHR OCC = 2)
NO PREFETCH REQUEST BECAUSE PREFETCH SCORE 3 IS NOT GREATER THAN 20 (MSHR OCC = 2)
NO PREFETCH REQUEST BECAUSE PREFETCH SCORE 3 IS NOT GREATER THAN 20 (MSHR OCC = 2)
NO PREFETCH REQUEST BECAUSE PREFETCH SCORE 3 IS NOT GREATER THAN 20 (MSHR OCC = 2)
NO PREFETCH REQUEST BECAUSE PREFETCH SCORE 3 IS NOT GREATER THAN 20 (MSHR OCC = 2)
NO PREFETCH REQUEST BECAUSE PREFETCH SCORE 3 IS NOT GREATER THAN 20 (MSHR OCC = 2)
NO PREFETCH REQUEST BECAUSE PREFETCH SCORE 3 IS NOT GREATER THAN 20 (MSHR OCC = 2)
NO PREFETCH REQUEST BECAUSE PREFETCH SCORE 3 IS NOT GREATER THAN 20 (MSHR OCC = 2)
NO PREFETCH REQUEST BECAUSE PREFETCH SCORE 3 IS NOT GREATER THAN 20 (MSHR OCC = 2)
NO PREFETCH REQUEST BECAUSE PREFETCH SCORE 3 IS NOT GREATER THAN 20 (MSHR OCC = 2)
NO PREFETCH REQUEST BECAUSE PREFETCH SCORE 3 IS NOT GREATER THAN 20 (MSHR OCC = 2)
NO PREFETCH REQUEST BECAUSE PREFETCH SCORE 3 IS NOT GREATER THAN 20 (MSHR OCC = 2)
NO PREFETCH REQUEST BECAUSE PREFETCH SCORE 3 IS NOT GREATER THAN 20 (MSHR OCC = 2)
NO PREFETCH REQUEST BECAUSE PREFETCH SCORE 3 IS NOT GREATER THAN 20 (MSHR OCC = 2)
NO PREFETCH REQUEST BECAUSE PREFETCH SCORE 3 IS NOT GREATER THAN 20 (MSHR OCC = 2)
NO PREFETCH REQUEST BECAUSE PREFETCH SCORE 3 IS NOT GREATER THAN 20 (MSHR OCC = 2)
NO PREFETCH REQUEST BECAUSE PREFETCH SCORE 3 IS NOT GREATER THAN 20 (MSHR OCC = 2)
NO PREFETCH REQUEST BECAUSE PREFETCH SCORE 3 IS NOT GREATER THAN 20 (MSHR OCC = 2)
NO PREFETCH REQUEST BECAUSE PREFETCH SCORE 3 IS NOT GREATER THAN 20 (MSHR OCC = 2)
NO PREFETCH REQUEST BECAUSE PREFETCH SCORE 3 IS NOT GREATER THAN 20 (MSHR OCC = 2)
NO PREFETCH REQUEST BECAUSE PREFETCH SCORE 3 IS NOT GREATER THAN 20 (MSHR OCC = 2)
NO PREFETCH REQUEST BECAUSE PREFETCH SCORE 3 IS NOT GREATER THAN 20 (MSHR OCC = 2)
NO PREFETCH REQUEST BECAUSE PREFETCH SCORE 3 IS NOT GREATER THAN 20 (MSHR OCC = 2)
NO PREFETCH REQUEST BECAUSE PREFETCH SCORE 3 IS NOT GREATER THAN 20 (MSHR OCC = 2)
NO PREFETCH REQUEST BECAUSE PREFETCH SCORE 3 IS NOT GREATER THAN 20 (MSHR OCC = 2)
NO PREFETCH REQUEST BECAUSE PREFETCH SCORE 3 IS NOT GREATER THAN 20 (MSHR OCC = 2)
NO PREFETCH REQUEST BECAUSE PREFETCH SCORE 3 IS NOT GREATER THAN 20 (MSHR OCC = 2)
NO PREFETCH REQUEST BECAUSE PREFETCH SCORE 3 IS NOT GREATER THAN 20 (MSHR OCC = 2)
NO PREFETCH REQUEST BECAUSE PREFETCH SCORE 3 IS NOT GREATER THAN 20 (MSHR OCC = 2)
NO PREFETCH REQUEST BECAUSE PREFETCH SCORE 3 IS NOT GREATER THAN 20 (MSHR OCC = 2)
NO PREFETCH REQUEST BECAUSE PREFETCH SCORE 3 IS NOT GREATER THAN 20 (MSHR OCC = 2)
NO PREFETCH REQUEST BECAUSE PREFETCH SCORE 3 IS NOT GREATER THAN 20 (MSHR OCC = 2)
NO PREFETCH REQUEST BECAUSE PREFETCH SCORE 3 IS NOT GREATER THAN 20 (MSHR OCC = 2)
NO PREFETCH REQUEST BECAUSE PREFETCH SCORE 3 IS NOT GREATER THAN 20 (MSHR OCC = 2)
NO PREFETCH REQUEST BECAUSE PREFETCH SCORE 3 IS NOT GREATER THAN 20 (MSHR OCC = 2)
NO PREFETCH REQUEST BECAUSE PREFETCH SCORE 3 IS NOT GREATER THAN 20 (MSHR OCC = 2)
NO PREFETCH REQUEST BECAUSE PREFETCH SCORE 3 IS NOT GREATER THAN 20 (MSHR OCC = 2)
NO PREFETCH REQUEST BECAUSE PREFETCH SCORE 3 IS NOT GREATER THAN 20 (MSHR OCC = 2)
NO PREFETCH REQUEST BECAUSE PREFETCH SCORE 3 IS NOT GREATER THAN 20 (MSHR OCC = 2)
NO PREFETCH REQUEST BECAUSE PREFETCH SCORE 3 IS NOT GREATER THAN 20 (MSHR OCC = 2)
NO PREFETCH REQUEST BECAUSE PREFETCH SCORE 3 IS NOT GREATER THAN 20 (MSHR OCC = 2)
NO PREFETCH REQUEST BECAUSE PREFETCH SCORE 3 IS NOT GREATER THAN 20 (MSHR OCC = 2)
NO PREFETCH REQUEST BECAUSE PREFETCH SCORE 3 IS NOT GREATER THAN 20 (MSHR OCC = 2)
NO PREFETCH REQUEST BECAUSE PREFETCH SCORE 3 IS NOT GREATER THAN 20 (MSHR OCC = 2)
NO PREFETCH REQUEST BECAUSE PREFETCH SCORE 3 IS NOT GREATER THAN 20 (MSHR OCC = 2)
NO PREFETCH REQUEST BECAUSE PREFETCH SCORE 3 IS NOT GREATER THAN 20 (MSHR OCC = 2)
NO PREFETCH REQUEST BECAUSE PREFETCH SCORE 3 IS NOT GREATER THAN 20 (MSHR OCC = 2)
NO PREFETCH REQUEST BECAUSE PREFETCH SCORE 3 IS NOT GREATER THAN 20 (MSHR OCC = 2)
NO PREFETCH REQUEST BECAUSE PREFETCH SCORE 3 IS NOT GREATER THAN 20 (MSHR OCC = 2)
NO PREFETCH REQUEST BECAUSE PREFETCH SCORE 3 IS NOT GREATER THAN 20 (MSHR OCC = 2)
NO PREFETCH REQUEST BECAUSE PREFETCH SCORE 3 IS NOT GREATER THAN 20 (MSHR OCC = 2)
NO PREFETCH REQUEST BECAUSE PREFETCH SCORE 3 IS NOT GREATER THAN 20 (MSHR OCC = 2)
NO PREFETCH REQUEST BECAUSE PREFETCH SCORE 3 IS NOT GREATER THAN 20 (MSHR OCC = 2)
NO PREFETCH REQUEST BECAUSE PREFETCH SCORE 3 IS NOT GREATER THAN 20 (MSHR OCC = 2)
NO PREFETCH REQUEST BECAUSE PREFETCH SCORE 3 IS NOT GREATER THAN 20 (MSHR OCC = 2)
NO PREFETCH REQUEST BECAUSE PREFETCH SCORE 3 IS NOT GREATER THAN 20 (MSHR OCC = 2)
NO PREFETCH REQUEST BECAUSE PREFETCH SCORE 3 IS NOT GREATER THAN 20 (MSHR OCC = 2)
NO PREFETCH REQUEST BECAUSE PREFETCH SCORE 3 IS NOT GREATER THAN 20 (MSHR OCC = 2)
NO PREFETCH REQUEST BECAUSE PREFETCH SCORE 3 IS NOT GREATER THAN 20 (MSHR OCC = 2)
NO PREFETCH REQUEST BECAUSE PREFETCH SCORE 3 IS NOT GREATER THAN 20 (MSHR OCC = 2)
NO PREFETCH REQUEST BECAUSE PREFETCH SCORE 3 IS NOT GREATER THAN 20 (MSHR OCC = 2)
NO PREFETCH REQUEST BECAUSE PREFETCH SCORE 3 IS NOT GREATER THAN 20 (MSHR OCC = 2)
NO PREFETCH REQUEST BECAUSE PREFETCH SCORE 3 IS NOT GREATER THAN 20 (MSHR OCC = 2)
NO PREFETCH REQUEST BECAUSE PREFETCH SCORE 3 IS NOT GREATER THAN 20 (MSHR OCC = 2)
NO PREFETCH REQUEST BECAUSE PREFETCH SCORE 3 IS NOT GREATER THAN 20 (MSHR OCC = 2)
NO PREFETCH REQUEST BECAUSE PREFETCH SCORE 3 IS NOT GREATER THAN 20 (MSHR OCC = 2)
NO PREFETCH REQUEST BECAUSE PREFETCH SCORE 3 IS NOT GREATER THAN 20 (MSHR OCC = 2)
NO PREFETCH REQUEST BECAUSE PREFETCH SCORE 3 IS NOT GREATER THAN 20 (MSHR OCC = 2)
NO PREFETCH REQUEST BECAUSE PREFETCH SCORE 3 IS NOT GREATER THAN 20 (MSHR OCC = 2)
NO PREFETCH REQUEST BECAUSE PREFETCH SCORE 3 IS NOT GREATER THAN 20 (MSHR OCC = 2)
NO PREFETCH REQUEST BECAUSE PREFETCH SCORE 3 IS NOT GREATER THAN 20 (MSHR OCC = 2)
NO PREFETCH REQUEST BECAUSE PREFETCH SCORE 3 IS NOT GREATER THAN 20 (MSHR OCC = 2)
NO PREFETCH REQUEST BECAUSE PREFETCH SCORE 3 IS NOT GREATER THAN 20 (MSHR OCC = 2)
NO PREFETCH REQUEST BECAUSE PREFETCH SCORE 3 IS NOT GREATER THAN 20 (MSHR OCC = 2)
NO PREFETCH REQUEST BECAUSE PREFETCH SCORE 3 IS NOT GREATER THAN 20 (MSHR OCC = 2)
NO PREFETCH REQUEST BECAUSE PREFETCH SCORE 3 IS NOT GREATER THAN 20 (MSHR OCC = 2)
NO PREFETCH REQUEST BECAUSE PREFETCH SCORE 3 IS NOT GREATER THAN 20 (MSHR OCC = 2)
NO PREFETCH REQUEST BECAUSE PREFETCH SCORE 3 IS NOT GREATER THAN 20 (MSHR OCC = 2)
NO PREFETCH REQUEST BECAUSE PREFETCH SCORE 3 IS NOT GREATER THAN 20 (MSHR OCC = 2)
NO PREFETCH REQUEST BECAUSE PREFETCH SCORE 3 IS NOT GREATER THAN 20 (MSHR OCC = 2)
NO PREFETCH REQUEST BECAUSE PREFETCH SCORE 3 IS NOT GREATER THAN 20 (MSHR OCC = 2)
NO PREFETCH REQUEST BECAUSE PREFETCH SCORE 3 IS NOT GREATER THAN 20 (MSHR OCC = 2)
NO PREFETCH REQUEST BECAUSE PREFETCH SCORE 3 IS NOT GREATER THAN 20 (MSHR OCC = 2)
NO PREFETCH REQUEST BECAUSE PREFETCH SCORE 3 IS NOT GREATER THAN 20 (MSHR OCC = 2)
NO PREFETCH REQUEST BECAUSE PREFETCH SCORE 3 IS NOT GREATER THAN 20 (MSHR OCC = 2)
NO PREFETCH REQUEST BECAUSE PREFETCH SCORE 3 IS NOT GREATER THAN 20 (MSHR OCC = 2)
NO PREFETCH REQUEST BECAUSE PREFETCH SCORE 3 IS NOT GREATER THAN 20 (MSHR OCC = 2)
NO PREFETCH REQUEST BECAUSE PREFETCH SCORE 3 IS NOT GREATER THAN 20 (MSHR OCC = 2)
NO PREFETCH REQUEST BECAUSE PREFETCH SCORE 3 IS NOT GREATER THAN 20 (MSHR OCC = 2)
NO PREFETCH REQUEST BECAUSE PREFETCH SCORE 3 IS NOT GREATER THAN 20 (MSHR OCC = 2)
NO PREFETCH REQUEST BECAUSE PREFETCH SCORE 3 IS NOT GREATER THAN 20 (MSHR OCC = 2)
NO PREFETCH REQUEST BECAUSE PREFETCH SCORE 3 IS NOT GREATER THAN 20 (MSHR OCC = 2)
NO PREFETCH REQUEST BECAUSE PREFETCH SCORE 3 IS NOT GREATER THAN 20 (MSHR OCC = 2)
NO PREFETCH REQUEST BECAUSE PREFETCH SCORE 3 IS NOT GREATER THAN 20 (MSHR OCC = 2)
NO PREFETCH REQUEST BECAUSE PREFETCH SCORE 3 IS NOT GREATER THAN 20 (MSHR OCC = 2)
NO PREFETCH REQUEST BECAUSE PREFETCH SCORE 3 IS NOT GREATER THAN 20 (MSHR OCC = 2)
NO PREFETCH REQUEST BECAUSE PREFETCH SCORE 3 IS NOT GREATER THAN 20 (MSHR OCC = 2)
NO PREFETCH REQUEST BECAUSE PREFETCH SCORE 3 IS NOT GREATER THAN 20 (MSHR OCC = 2)
NO PREFETCH REQUEST BECAUSE PREFETCH SCORE 3 IS NOT GREATER THAN 20 (MSHR OCC = 2)
NO PREFETCH REQUEST BECAUSE PREFETCH SCORE 3 IS NOT GREATER THAN 20 (MSHR OCC = 2)
NO PREFETCH REQUEST BECAUSE PREFETCH SCORE 3 IS NOT GREATER THAN 20 (MSHR OCC = 2)
NO PREFETCH REQUEST BECAUSE PREFETCH SCORE 3 IS NOT GREATER THAN 20 (MSHR OCC = 2)
NO PREFETCH REQUEST BECAUSE PREFETCH SCORE 3 IS NOT GREATER THAN 20 (MSHR OCC = 2)
NO PREFETCH REQUEST BECAUSE PREFETCH SCORE 3 IS NOT GREATER THAN 20 (MSHR OCC = 2)
NO PREFETCH REQUEST BECAUSE PREFETCH SCORE 3 IS NOT GREATER THAN 20 (MSHR OCC = 2)
NO PREFETCH REQUEST BECAUSE PREFETCH SCORE 3 IS NOT GREATER THAN 20 (MSHR OCC = 2)
NO PREFETCH REQUEST BECAUSE PREFETCH SCORE 3 IS NOT GREATER THAN 20 (MSHR OCC = 2)
NO PREFETCH REQUEST BECAUSE PREFETCH SCORE 3 IS NOT GREATER THAN 20 (MSHR OCC = 2)
NO PREFETCH REQUEST BECAUSE PREFETCH SCORE 3 IS NOT GREATER THAN 20 (MSHR OCC = 2)
NO PREFETCH REQUEST BECAUSE PREFETCH SCORE 3 IS NOT GREATER THAN 20 (MSHR OCC = 2)
NO PREFETCH REQUEST BECAUSE PREFETCH SCORE 3 IS NOT GREATER THAN 20 (MSHR OCC = 2)
NO PREFETCH REQUEST BECAUSE PREFETCH SCORE 3 IS NOT GREATER THAN 20 (MSHR OCC = 2)
NO PREFETCH REQUEST BECAUSE PREFETCH SCORE 3 IS NOT GREATER THAN 20 (MSHR OCC = 2)
NO PREFETCH REQUEST BECAUSE PREFETCH SCORE 3 IS NOT GREATER THAN 20 (MSHR OCC = 2)
NO PREFETCH REQUEST BECAUSE PREFETCH SCORE 3 IS NOT GREATER THAN 20 (MSHR OCC = 2)
NO PREFETCH REQUEST BECAUSE PREFETCH SCORE 3 IS NOT GREATER THAN 20 (MSHR OCC = 2)
NO PREFETCH REQUEST BECAUSE PREFETCH SCORE 3 IS NOT GREATER THAN 20 (MSHR OCC = 2)
NO PREFETCH REQUEST BECAUSE PREFETCH SCORE 3 IS NOT GREATER THAN 20 (MSHR OCC = 2)
NO PREFETCH REQUEST BECAUSE PREFETCH SCORE 3 IS NOT GREATER THAN 20 (MSHR OCC = 2)
NO PREFETCH REQUEST BECAUSE PREFETCH SCORE 3 IS NOT GREATER THAN 20 (MSHR OCC = 2)
NO PREFETCH REQUEST BECAUSE PREFETCH SCORE 3 IS NOT GREATER THAN 20 (MSHR OCC = 2)
NO PREFETCH REQUEST BECAUSE PREFETCH SCORE 3 IS NOT GREATER THAN 20 (MSHR OCC = 2)
NO PREFETCH REQUEST BECAUSE PREFETCH SCORE 3 IS NOT GREATER THAN 20 (MSHR OCC = 2)
NO PREFETCH REQUEST BECAUSE PREFETCH SCORE 3 IS NOT GREATER THAN 20 (MSHR OCC = 2)
NO PREFETCH REQUEST BECAUSE PREFETCH SCORE 3 IS NOT GREATER THAN 20 (MSHR OCC = 2)
NO PREFETCH REQUEST BECAUSE PREFETCH SCORE 3 IS NOT GREATER THAN 20 (MSHR OCC = 2)
NO PREFETCH REQUEST BECAUSE PREFETCH SCORE 3 IS NOT GREATER THAN 20 (MSHR OCC = 2)
NO PREFETCH REQUEST BECAUSE PREFETCH SCORE 3 IS NOT GREATER THAN 20 (MSHR OCC = 2)
NO PREFETCH REQUEST BECAUSE PREFETCH SCORE 3 IS NOT GREATER THAN 20 (MSHR OCC = 2)
NO PREFETCH REQUEST BECAUSE PREFETCH SCORE 3 IS NOT GREATER THAN 20 (MSHR OCC = 2)
NO PREFETCH REQUEST BECAUSE PREFETCH SCORE 3 IS NOT GREATER THAN 20 (MSHR OCC = 2)
NO PREFETCH REQUEST BECAUSE PREFETCH SCORE 3 IS NOT GREATER THAN 20 (MSHR OCC = 2)
NO PREFETCH REQUEST BECAUSE PREFETCH SCORE 3 IS NOT GREATER THAN 20 (MSHR OCC = 2)
NO PREFETCH REQUEST BECAUSE PREFETCH SCORE 3 IS NOT GREATER THAN 20 (MSHR OCC = 2)
NO PREFETCH REQUEST BECAUSE PREFETCH SCORE 3 IS NOT GREATER THAN 20 (MSHR OCC = 2)
NO PREFETCH REQUEST BECAUSE PREFETCH SCORE 3 IS NOT GREATER THAN 20 (MSHR OCC = 2)
NO PREFETCH REQUEST BECAUSE PREFETCH SCORE 3 IS NOT GREATER THAN 20 (MSHR OCC = 2)
NO PREFETCH REQUEST BECAUSE PREFETCH SCORE 3 IS NOT GREATER THAN 20 (MSHR OCC = 2)
NO PREFETCH REQUEST BECAUSE PREFETCH SCORE 3 IS NOT GREATER THAN 20 (MSHR OCC = 2)
NO PREFETCH REQUEST BECAUSE PREFETCH SCORE 3 IS NOT GREATER THAN 20 (MSHR OCC = 2)
NO PREFETCH REQUEST BECAUSE PREFETCH SCORE 3 IS NOT GREATER THAN 20 (MSHR OCC = 2)
NO PREFETCH REQUEST BECAUSE PREFETCH SCORE 3 IS NOT GREATER THAN 20 (MSHR OCC = 2)
NO PREFETCH REQUEST BECAUSE PREFETCH SCORE 3 IS NOT GREATER THAN 20 (MSHR OCC = 2)
NO PREFETCH REQUEST BECAUSE PREFETCH SCORE 3 IS NOT GREATER THAN 20 (MSHR OCC = 2)
NO PREFETCH REQUEST BECAUSE PREFETCH SCORE 3 IS NOT GREATER THAN 20 (MSHR OCC = 2)
NO PREFETCH REQUEST BECAUSE PREFETCH SCORE 3 IS NOT GREATER THAN 20 (MSHR OCC = 2)
NO PREFETCH REQUEST BECAUSE PREFETCH SCORE 3 IS NOT GREATER THAN 20 (MSHR OCC = 2)
NO PREFETCH REQUEST BECAUSE PREFETCH SCORE 3 IS NOT GREATER THAN 20 (MSHR OCC = 2)
NO PREFETCH REQUEST BECAUSE PREFETCH SCORE 3 IS NOT GREATER THAN 20 (MSHR OCC = 2)
NO PREFETCH REQUEST BECAUSE PREFETCH SCORE 3 IS NOT GREATER THAN 20 (MSHR OCC = 2)
NO PREFETCH REQUEST BECAUSE PREFETCH SCORE 3 IS NOT GREATER THAN 20 (MSHR OCC = 2)
NO PREFETCH REQUEST BECAUSE PREFETCH SCORE 3 IS NOT GREATER THAN 20 (MSHR OCC = 2)
NO PREFETCH REQUEST BECAUSE PREFETCH SCORE 3 IS NOT GREATER THAN 20 (MSHR OCC = 2)
NO PREFETCH REQUEST BECAUSE PREFETCH SCORE 3 IS NOT GREATER THAN 20 (MSHR OCC = 2)
NO PREFETCH REQUEST BECAUSE PREFETCH SCORE 3 IS NOT GREATER THAN 20 (MSHR OCC = 2)
NO PREFETCH REQUEST BECAUSE PREFETCH SCORE 3 IS NOT GREATER THAN 20 (MSHR OCC = 2)
NO PREFETCH REQUEST BECAUSE PREFETCH SCORE 3 IS NOT GREATER THAN 20 (MSHR OCC = 2)
NO PREFETCH REQUEST BECAUSE PREFETCH SCORE 3 IS NOT GREATER THAN 20 (MSHR OCC = 2)
NO PREFETCH REQUEST BECAUSE PREFETCH SCORE 3 IS NOT GREATER THAN 20 (MSHR OCC = 2)
NO PREFETCH REQUEST BECAUSE PREFETCH SCORE 3 IS NOT GREATER THAN 20 (MSHR OCC = 2)
NO PREFETCH REQUEST BECAUSE PREFETCH SCORE 3 IS NOT GREATER THAN 20 (MSHR OCC = 2)
NO PREFETCH REQUEST BECAUSE PREFETCH SCORE 3 IS NOT GREATER THAN 20 (MSHR OCC = 2)
NO PREFETCH REQUEST BECAUSE PREFETCH SCORE 3 IS NOT GREATER THAN 20 (MSHR OCC = 2)
NO PREFETCH REQUEST BECAUSE PREFETCH SCORE 3 IS NOT GREATER THAN 20 (MSHR OCC = 2)
NO PREFETCH REQUEST BECAUSE PREFETCH SCORE 3 IS NOT GREATER THAN 20 (MSHR OCC = 2)
NO PREFETCH REQUEST BECAUSE PREFETCH SCORE 3 IS NOT GREATER THAN 20 (MSHR OCC = 2)
NO PREFETCH REQUEST BECAUSE PREFETCH SCORE 3 IS NOT GREATER THAN 20 (MSHR OCC = 2)
NO PREFETCH REQUEST BECAUSE PREFETCH SCORE 3 IS NOT GREATER THAN 20 (MSHR OCC = 2)
NO PREFETCH REQUEST BECAUSE PREFETCH SCORE 3 IS NOT GREATER THAN 20 (MSHR OCC = 2)
NO PREFETCH REQUEST BECAUSE PREFETCH SCORE 3 IS NOT GREATER THAN 20 (MSHR OCC = 2)
NO PREFETCH REQUEST BECAUSE PREFETCH SCORE 3 IS NOT GREATER THAN 20 (MSHR OCC = 2)
NO PREFETCH REQUEST BECAUSE PREFETCH SCORE 3 IS NOT GREATER THAN 20 (MSHR OCC = 2)
NO PREFETCH REQUEST BECAUSE PREFETCH SCORE 3 IS NOT GREATER THAN 20 (MSHR OCC = 2)
NO PREFETCH REQUEST BECAUSE PREFETCH SCORE 3 IS NOT GREATER THAN 20 (MSHR OCC = 2)
NO PREFETCH REQUEST BECAUSE PREFETCH SCORE 3 IS NOT GREATER THAN 20 (MSHR OCC = 2)
NO PREFETCH REQUEST BECAUSE PREFETCH SCORE 3 IS NOT GREATER THAN 20 (MSHR OCC = 2)
NO PREFETCH REQUEST BECAUSE PREFETCH SCORE 3 IS NOT GREATER THAN 20 (MSHR OCC = 2)
NO PREFETCH REQUEST BECAUSE PREFETCH SCORE 3 IS NOT GREATER THAN 20 (MSHR OCC = 2)
NO PREFETCH REQUEST BECAUSE PREFETCH SCORE 3 IS NOT GREATER THAN 20 (MSHR OCC = 2)
NO PREFETCH REQUEST BECAUSE PREFETCH SCORE 3 IS NOT GREATER THAN 20 (MSHR OCC = 2)
NO PREFETCH REQUEST BECAUSE PREFETCH SCORE 3 IS NOT GREATER THAN 20 (MSHR OCC = 2)
NO PREFETCH REQUEST BECAUSE PREFETCH SCORE 3 IS NOT GREATER THAN 20 (MSHR OCC = 2)
NO PREFETCH REQUEST BECAUSE PREFETCH SCORE 3 IS NOT GREATER THAN 20 (MSHR OCC = 2)
NO PREFETCH REQUEST BECAUSE PREFETCH SCORE 3 IS NOT GREATER THAN 20 (MSHR OCC = 2)
NO PREFETCH REQUEST BECAUSE PREFETCH SCORE 3 IS NOT GREATER THAN 20 (MSHR OCC = 2)
NO PREFETCH REQUEST BECAUSE PREFETCH SCORE 3 IS NOT GREATER THAN 20 (MSHR OCC = 2)
NO PREFETCH REQUEST BECAUSE PREFETCH SCORE 3 IS NOT GREATER THAN 20 (MSHR OCC = 2)
NO PREFETCH REQUEST BECAUSE PREFETCH SCORE 3 IS NOT GREATER THAN 20 (MSHR OCC = 2)
NO PREFETCH REQUEST BECAUSE PREFETCH SCORE 3 IS NOT GREATER THAN 20 (MSHR OCC = 2)
NO PREFETCH REQUEST BECAUSE PREFETCH SCORE 3 IS NOT GREATER THAN 20 (MSHR OCC = 2)
NO PREFETCH REQUEST BECAUSE PREFETCH SCORE 3 IS NOT GREATER THAN 20 (MSHR OCC = 2)
NO PREFETCH REQUEST BECAUSE PREFETCH SCORE 3 IS NOT GREATER THAN 20 (MSHR OCC = 2)
NO PREFETCH REQUEST BECAUSE PREFETCH SCORE 3 IS NOT GREATER THAN 20 (MSHR OCC = 2)
NO PREFETCH REQUEST BECAUSE PREFETCH SCORE 3 IS NOT GREATER THAN 20 (MSHR OCC = 2)
NO PREFETCH REQUEST BECAUSE PREFETCH SCORE 3 IS NOT GREATER THAN 20 (MSHR OCC = 2)
NO PREFETCH REQUEST BECAUSE PREFETCH SCORE 3 IS NOT GREATER THAN 20 (MSHR OCC = 2)
NO PREFETCH REQUEST BECAUSE PREFETCH SCORE 3 IS NOT GREATER THAN 20 (MSHR OCC = 2)
NO PREFETCH REQUEST BECAUSE PREFETCH SCORE 3 IS NOT GREATER THAN 20 (MSHR OCC = 2)
NO PREFETCH REQUEST BECAUSE PREFETCH SCORE 3 IS NOT GREATER THAN 20 (MSHR OCC = 2)
NO PREFETCH REQUEST BECAUSE PREFETCH SCORE 3 IS NOT GREATER THAN 20 (MSHR OCC = 2)
NO PREFETCH REQUEST BECAUSE PREFETCH SCORE 3 IS NOT GREATER THAN 20 (MSHR OCC = 2)
NO PREFETCH REQUEST BECAUSE PREFETCH SCORE 3 IS NOT GREATER THAN 20 (MSHR OCC = 2)
NO PREFETCH REQUEST BECAUSE PREFETCH SCORE 3 IS NOT GREATER THAN 20 (MSHR OCC = 2)
NO PREFETCH REQUEST BECAUSE PREFETCH SCORE 3 IS NOT GREATER THAN 20 (MSHR OCC = 2)
NO PREFETCH REQUEST BECAUSE PREFETCH SCORE 3 IS NOT GREATER THAN 20 (MSHR OCC = 2)
NO PREFETCH REQUEST BECAUSE PREFETCH SCORE 3 IS NOT GREATER THAN 20 (MSHR OCC = 2)
NO PREFETCH REQUEST BECAUSE PREFETCH SCORE 3 IS NOT GREATER THAN 20 (MSHR OCC = 2)
NO PREFETCH REQUEST BECAUSE PREFETCH SCORE 3 IS NOT GREATER THAN 20 (MSHR OCC = 2)
NO PREFETCH REQUEST BECAUSE PREFETCH SCORE 3 IS NOT GREATER THAN 20 (MSHR OCC = 2)
NO PREFETCH REQUEST BECAUSE PREFETCH SCORE 3 IS NOT GREATER THAN 20 (MSHR OCC = 2)
NO PREFETCH REQUEST BECAUSE PREFETCH SCORE 3 IS NOT GREATER THAN 20 (MSHR OCC = 2)
NO PREFETCH REQUEST BECAUSE PREFETCH SCORE 3 IS NOT GREATER THAN 20 (MSHR OCC = 2)
NO PREFETCH REQUEST BECAUSE PREFETCH SCORE 3 IS NOT GREATER THAN 20 (MSHR OCC = 2)
NO PREFETCH REQUEST BECAUSE PREFETCH SCORE 3 IS NOT GREATER THAN 20 (MSHR OCC = 2)
NO PREFETCH REQUEST BECAUSE PREFETCH SCORE 3 IS NOT GREATER THAN 20 (MSHR OCC = 2)
NO PREFETCH REQUEST BECAUSE PREFETCH SCORE 3 IS NOT GREATER THAN 20 (MSHR OCC = 2)
NO PREFETCH REQUEST BECAUSE PREFETCH SCORE 3 IS NOT GREATER THAN 20 (MSHR OCC = 2)
NO PREFETCH REQUEST BECAUSE PREFETCH SCORE 3 IS NOT GREATER THAN 20 (MSHR OCC = 2)
NO PREFETCH REQUEST BECAUSE PREFETCH SCORE 3 IS NOT GREATER THAN 20 (MSHR OCC = 2)
NO PREFETCH REQUEST BECAUSE PREFETCH SCORE 3 IS NOT GREATER THAN 20 (MSHR OCC = 2)
NO PREFETCH REQUEST BECAUSE PREFETCH SCORE 3 IS NOT GREATER THAN 20 (MSHR OCC = 2)
NO PREFETCH REQUEST BECAUSE PREFETCH SCORE 3 IS NOT GREATER THAN 20 (MSHR OCC = 2)
NO PREFETCH REQUEST BECAUSE PREFETCH SCORE 3 IS NOT GREATER THAN 20 (MSHR OCC = 2)
NO PREFETCH REQUEST BECAUSE PREFETCH SCORE 3 IS NOT GREATER THAN 20 (MSHR OCC = 2)
NO PREFETCH REQUEST BECAUSE PREFETCH SCORE 3 IS NOT GREATER THAN 20 (MSHR OCC = 2)
NO PREFETCH REQUEST BECAUSE PREFETCH SCORE 3 IS NOT GREATER THAN 20 (MSHR OCC = 2)
NO PREFETCH REQUEST BECAUSE PREFETCH SCORE 3 IS NOT GREATER THAN 20 (MSHR OCC = 2)
NO PREFETCH REQUEST BECAUSE PREFETCH SCORE 3 IS NOT GREATER THAN 20 (MSHR OCC = 2)
NO PREFETCH REQUEST BECAUSE PREFETCH SCORE 3 IS NOT GREATER THAN 20 (MSHR OCC = 2)
NO PREFETCH REQUEST BECAUSE PREFETCH SCORE 3 IS NOT GREATER THAN 20 (MSHR OCC = 2)
NO PREFETCH REQUEST BECAUSE PREFETCH SCORE 3 IS NOT GREATER THAN 20 (MSHR OCC = 2)
NO PREFETCH REQUEST BECAUSE PREFETCH SCORE 3 IS NOT GREATER THAN 20 (MSHR OCC = 2)
NO PREFETCH REQUEST BECAUSE PREFETCH SCORE 3 IS NOT GREATER THAN 20 (MSHR OCC = 2)
NO PREFETCH REQUEST BECAUSE PREFETCH SCORE 3 IS NOT GREATER THAN 20 (MSHR OCC = 2)
NO PREFETCH REQUEST BECAUSE PREFETCH SCORE 3 IS NOT GREATER THAN 20 (MSHR OCC = 2)
NO PREFETCH REQUEST BECAUSE PREFETCH SCORE 3 IS NOT GREATER THAN 20 (MSHR OCC = 2)
NO PREFETCH REQUEST BECAUSE PREFETCH SCORE 3 IS NOT GREATER THAN 20 (MSHR OCC = 2)
NO PREFETCH REQUEST BECAUSE PREFETCH SCORE 3 IS NOT GREATER THAN 20 (MSHR OCC = 2)
NO PREFETCH REQUEST BECAUSE PREFETCH SCORE 3 IS NOT GREATER THAN 20 (MSHR OCC = 2)
NO PREFETCH REQUEST BECAUSE PREFETCH SCORE 3 IS NOT GREATER THAN 20 (MSHR OCC = 2)
NO PREFETCH REQUEST BECAUSE PREFETCH SCORE 3 IS NOT GREATER THAN 20 (MSHR OCC = 2)
NO PREFETCH REQUEST BECAUSE PREFETCH SCORE 3 IS NOT GREATER THAN 20 (MSHR OCC = 2)
NO PREFETCH REQUEST BECAUSE PREFETCH SCORE 3 IS NOT GREATER THAN 20 (MSHR OCC = 2)
NO PREFETCH REQUEST BECAUSE PREFETCH SCORE 3 IS NOT GREATER THAN 20 (MSHR OCC = 2)
NO PREFETCH REQUEST BECAUSE PREFETCH SCORE 3 IS NOT GREATER THAN 20 (MSHR OCC = 2)
NO PREFETCH REQUEST BECAUSE PREFETCH SCORE 3 IS NOT GREATER THAN 20 (MSHR OCC = 2)
NO PREFETCH REQUEST BECAUSE PREFETCH SCORE 3 IS NOT GREATER THAN 20 (MSHR OCC = 2)
NO PREFETCH REQUEST BECAUSE PREFETCH SCORE 3 IS NOT GREATER THAN 20 (MSHR OCC = 2)
NO PREFETCH REQUEST BECAUSE PREFETCH SCORE 3 IS NOT GREATER THAN 20 (MSHR OCC = 2)
NO PREFETCH REQUEST BECAUSE PREFETCH SCORE 3 IS NOT GREATER THAN 20 (MSHR OCC = 2)
NO PREFETCH REQUEST BECAUSE PREFETCH SCORE 3 IS NOT GREATER THAN 20 (MSHR OCC = 2)
NO PREFETCH REQUEST BECAUSE PREFETCH SCORE 3 IS NOT GREATER THAN 20 (MSHR OCC = 2)
NO PREFETCH REQUEST BECAUSE PREFETCH SCORE 3 IS NOT GREATER THAN 20 (MSHR OCC = 2)
NO PREFETCH REQUEST BECAUSE PREFETCH SCORE 3 IS NOT GREATER THAN 20 (MSHR OCC = 2)
NO PREFETCH REQUEST BECAUSE PREFETCH SCORE 3 IS NOT GREATER THAN 20 (MSHR OCC = 2)
NO PREFETCH REQUEST BECAUSE PREFETCH SCORE 3 IS NOT GREATER THAN 20 (MSHR OCC = 2)
NO PREFETCH REQUEST BECAUSE PREFETCH SCORE 3 IS NOT GREATER THAN 20 (MSHR OCC = 2)
NO PREFETCH REQUEST BECAUSE PREFETCH SCORE 3 IS NOT GREATER THAN 20 (MSHR OCC = 2)
NO PREFETCH REQUEST BECAUSE PREFETCH SCORE 3 IS NOT GREATER THAN 20 (MSHR OCC = 2)
NO PREFETCH REQUEST BECAUSE PREFETCH SCORE 3 IS NOT GREATER THAN 20 (MSHR OCC = 2)
NO PREFETCH REQUEST BECAUSE PREFETCH SCORE 3 IS NOT GREATER THAN 20 (MSHR OCC = 2)
NO PREFETCH REQUEST BECAUSE PREFETCH SCORE 3 IS NOT GREATER THAN 20 (MSHR OCC = 2)
NO PREFETCH REQUEST BECAUSE PREFETCH SCORE 3 IS NOT GREATER THAN 20 (MSHR OCC = 2)
NO PREFETCH REQUEST BECAUSE PREFETCH SCORE 3 IS NOT GREATER THAN 20 (MSHR OCC = 2)
NO PREFETCH REQUEST BECAUSE PREFETCH SCORE 3 IS NOT GREATER THAN 20 (MSHR OCC = 2)
NO PREFETCH REQUEST BECAUSE PREFETCH SCORE 3 IS NOT GREATER THAN 20 (MSHR OCC = 2)
NO PREFETCH REQUEST BECAUSE PREFETCH SCORE 3 IS NOT GREATER THAN 20 (MSHR OCC = 2)
NO PREFETCH REQUEST BECAUSE PREFETCH SCORE 3 IS NOT GREATER THAN 20 (MSHR OCC = 2)
NO PREFETCH REQUEST BECAUSE PREFETCH SCORE 3 IS NOT GREATER THAN 20 (MSHR OCC = 2)
NO PREFETCH REQUEST BECAUSE PREFETCH SCORE 3 IS NOT GREATER THAN 20 (MSHR OCC = 2)
NO PREFETCH REQUEST BECAUSE PREFETCH SCORE 3 IS NOT GREATER THAN 20 (MSHR OCC = 2)
NO PREFETCH REQUEST BECAUSE PREFETCH SCORE 3 IS NOT GREATER THAN 20 (MSHR OCC = 2)
NO PREFETCH REQUEST BECAUSE PREFETCH SCORE 3 IS NOT GREATER THAN 20 (MSHR OCC = 2)
NO PREFETCH REQUEST BECAUSE PREFETCH SCORE 3 IS NOT GREATER THAN 20 (MSHR OCC = 2)
NO PREFETCH REQUEST BECAUSE PREFETCH SCORE 3 IS NOT GREATER THAN 20 (MSHR OCC = 2)
NO PREFETCH REQUEST BECAUSE PREFETCH SCORE 3 IS NOT GREATER THAN 20 (MSHR OCC = 2)
NO PREFETCH REQUEST BECAUSE PREFETCH SCORE 3 IS NOT GREATER THAN 20 (MSHR OCC = 2)
NO PREFETCH REQUEST BECAUSE PREFETCH SCORE 3 IS NOT GREATER THAN 20 (MSHR OCC = 2)
NO PREFETCH REQUEST BECAUSE PREFETCH SCORE 3 IS NOT GREATER THAN 20 (MSHR OCC = 2)
NO PREFETCH REQUEST BECAUSE PREFETCH SCORE 3 IS NOT GREATER THAN 20 (MSHR OCC = 2)
NO PREFETCH REQUEST BECAUSE PREFETCH SCORE 3 IS NOT GREATER THAN 20 (MSHR OCC = 2)
NO PREFETCH REQUEST BECAUSE PREFETCH SCORE 3 IS NOT GREATER THAN 20 (MSHR OCC = 2)
NO PREFETCH REQUEST BECAUSE PREFETCH SCORE 3 IS NOT GREATER THAN 20 (MSHR OCC = 2)
NO PREFETCH REQUEST BECAUSE PREFETCH SCORE 3 IS NOT GREATER THAN 20 (MSHR OCC = 2)
NO PREFETCH REQUEST BECAUSE PREFETCH SCORE 3 IS NOT GREATER THAN 20 (MSHR OCC = 2)
NO PREFETCH REQUEST BECAUSE PREFETCH SCORE 3 IS NOT GREATER THAN 20 (MSHR OCC = 2)
NO PREFETCH REQUEST BECAUSE PREFETCH SCORE 3 IS NOT GREATER THAN 20 (MSHR OCC = 2)
NO PREFETCH REQUEST BECAUSE PREFETCH SCORE 3 IS NOT GREATER THAN 20 (MSHR OCC = 2)
NO PREFETCH REQUEST BECAUSE PREFETCH SCORE 3 IS NOT GREATER THAN 20 (MSHR OCC = 2)
NO PREFETCH REQUEST BECAUSE PREFETCH SCORE 3 IS NOT GREATER THAN 20 (MSHR OCC = 2)
NO PREFETCH REQUEST BECAUSE PREFETCH SCORE 3 IS NOT GREATER THAN 20 (MSHR OCC = 2)
NO PREFETCH REQUEST BECAUSE PREFETCH SCORE 3 IS NOT GREATER THAN 20 (MSHR OCC = 2)
NO PREFETCH REQUEST BECAUSE PREFETCH SCORE 3 IS NOT GREATER THAN 20 (MSHR OCC = 2)
NO PREFETCH REQUEST BECAUSE PREFETCH SCORE 3 IS NOT GREATER THAN 20 (MSHR OCC = 2)
NO PREFETCH REQUEST BECAUSE PREFETCH SCORE 3 IS NOT GREATER THAN 20 (MSHR OCC = 2)
NO PREFETCH REQUEST BECAUSE PREFETCH SCORE 3 IS NOT GREATER THAN 20 (MSHR OCC = 2)
NO PREFETCH REQUEST BECAUSE PREFETCH SCORE 3 IS NOT GREATER THAN 20 (MSHR OCC = 2)
[...]
NO PREFETCH REQUEST BECAUSE PREFETCH SCORE 4 IS NOT GREATER THAN 20 (MSHR OCC = 2)
NO PREFETCH REQUEST BECAUSE PREFETCH SCORE 4 IS NOT GREATER THAN 20 (MSHR OCC = 2)
NO PREFETCH REQUEST BECAUSE PREFETCH SCORE 4 IS NOT GREATER THAN 20 (MSHR OCC = 2)
NO PREFETCH REQUEST BECAUSE PREFETCH SCORE 4 IS NOT GREATER THAN 20 (MSHR OCC = 2)
NO PREFETCH REQUEST BECAUSE PREFETCH SCORE 4 IS NOT GREATER THAN 20 (MSHR OCC = 3)
NO PREFETCH REQUEST BECAUSE PREFETCH SCORE 4 IS NOT GREATER THAN 20 (MSHR OCC = 3)
NO PREFETCH REQUEST BECAUSE PREFETCH SCORE 4 IS NOT GREATER THAN 20 (MSHR OCC = 2)
NO PREFETCH REQUEST BECAUSE PREFETCH SCORE 4 IS NOT GREATER THAN 20 (MSHR OCC = 2)
NO PREFETCH REQUEST BECAUSE PREFETCH SCORE 4 IS NOT GREATER THAN 20 (MSHR OCC = 5)
NO PREFETCH REQUEST BECAUSE PREFETCH SCORE 4 IS NOT GREATER THAN 20 (MSHR OCC = 3)
NO PREFETCH REQUEST BECAUSE PREFETCH SCORE 4 IS NOT GREATER THAN 20 (MSHR OCC = 3)
NO PREFETCH REQUEST BECAUSE PREFETCH SCORE 4 IS NOT GREATER THAN 20 (MSHR OCC = 3)
NO PREFETCH REQUEST BECAUSE PREFETCH SCORE 4 IS NOT GREATER THAN 20 (MSHR OCC = 2)
NO PREFETCH REQUEST BECAUSE PREFETCH SCORE 4 IS NOT GREATER THAN 20 (MSHR OCC = 2)
NO PREFETCH REQUEST BECAUSE PREFETCH SCORE 4 IS NOT GREATER THAN 20 (MSHR OCC = 2)
NO PREFETCH REQUEST BECAUSE PREFETCH SCORE 4 IS NOT GREATER THAN 20 (MSHR OCC = 2)
NO PREFETCH REQUEST BECAUSE PREFETCH SCORE 4 IS NOT GREATER THAN 20 (MSHR OCC = 2)
NO PREFETCH REQUEST BECAUSE PREFETCH SCORE 4 IS NOT GREATER THAN 20 (MSHR OCC = 3)
NO PREFETCH REQUEST BECAUSE PREFETCH SCORE 4 IS NOT GREATER THAN 20 (MSHR OCC = 3)
NO PREFETCH REQUEST BECAUSE PREFETCH SCORE 4 IS NOT GREATER THAN 20 (MSHR OCC = 2)
NO PREFETCH REQUEST BECAUSE PREFETCH SCORE 4 IS NOT GREATER THAN 20 (MSHR OCC = 3)
NO PREFETCH REQUEST BECAUSE PREFETCH SCORE 4 IS NOT GREATER THAN 20 (MSHR OCC = 4)
NO PREFETCH REQUEST BECAUSE PREFETCH SCORE 4 IS NOT GREATER THAN 20 (MSHR OCC = 4)
NO PREFETCH REQUEST BECAUSE PREFETCH SCORE 4 IS NOT GREATER THAN 20 (MSHR OCC = 3)
NO PREFETCH REQUEST BECAUSE PREFETCH SCORE 4 IS NOT GREATER THAN 20 (MSHR OCC = 2)
NO PREFETCH REQUEST BECAUSE PREFETCH SCORE 4 IS NOT GREATER THAN 20 (MSHR OCC = 2)
NO PREFETCH REQUEST BECAUSE PREFETCH SCORE 4 IS NOT GREATER THAN 20 (MSHR OCC = 3)
NO PREFETCH REQUEST BECAUSE PREFETCH SCORE 4 IS NOT GREATER THAN 20 (MSHR OCC = 2)
NO PREFETCH REQUEST BECAUSE PREFETCH SCORE 4 IS NOT GREATER THAN 20 (MSHR OCC = 2)
NO PREFETCH REQUEST BECAUSE PREFETCH SCORE 4 IS NOT GREATER THAN 20 (MSHR OCC = 3)
NO PREFETCH REQUEST BECAUSE PREFETCH SCORE 4 IS NOT GREATER THAN 20 (MSHR OCC = 4)
NO PREFETCH REQUEST BECAUSE PREFETCH SCORE 4 IS NOT GREATER THAN 20 (MSHR OCC = 2)
NO PREFETCH REQUEST BECAUSE PREFETCH SCORE 4 IS NOT GREATER THAN 20 (MSHR OCC = 3)
NO PREFETCH REQUEST BECAUSE PREFETCH SCORE 4 IS NOT GREATER THAN 20 (MSHR OCC = 3)
NO PREFETCH REQUEST BECAUSE PREFETCH SCORE 4 IS NOT GREATER THAN 20 (MSHR OCC = 3)
NO PREFETCH REQUEST BECAUSE PREFETCH SCORE 4 IS NOT GREATER THAN 20 (MSHR OCC = 2)
NO PREFETCH REQUEST BECAUSE PREFETCH SCORE 4 IS NOT GREATER THAN 20 (MSHR OCC = 2)
NO PREFETCH REQUEST BECAUSE PREFETCH SCORE 4 IS NOT GREATER THAN 20 (MSHR OCC = 2)
NO PREFETCH REQUEST BECAUSE PREFETCH SCORE 4 IS NOT GREATER THAN 20 (MSHR OCC = 3)
NO PREFETCH REQUEST BECAUSE PREFETCH SCORE 4 IS NOT GREATER THAN 20 (MSHR OCC = 3)
NO PREFETCH REQUEST BECAUSE PREFETCH SCORE 4 IS NOT GREATER THAN 20 (MSHR OCC = 3)
NO PREFETCH REQUEST BECAUSE PREFETCH SCORE 4 IS NOT GREATER THAN 20 (MSHR OCC = 2)
NO PREFETCH REQUEST BECAUSE PREFETCH SCORE 4 IS NOT GREATER THAN 20 (MSHR OCC = 3)
NO PREFETCH REQUEST BECAUSE PREFETCH SCORE 4 IS NOT GREATER THAN 20 (MSHR OCC = 3)
NO PREFETCH REQUEST BECAUSE PREFETCH SCORE 4 IS NOT GREATER THAN 20 (MSHR OCC = 2)
NO PREFETCH REQUEST BECAUSE PREFETCH SCORE 4 IS NOT GREATER THAN 20 (MSHR OCC = 3)
NO PREFETCH REQUEST BECAUSE PREFETCH SCORE 4 IS NOT GREATER THAN 20 (MSHR OCC = 3)
NO PREFETCH REQUEST BECAUSE PREFETCH SCORE 4 IS NOT GREATER THAN 20 (MSHR OCC = 2)
NO PREFETCH REQUEST BECAUSE PREFETCH SCORE 4 IS NOT GREATER THAN 20 (MSHR OCC = 3)
NO PREFETCH REQUEST BECAUSE PREFETCH SCORE 4 IS NOT GREATER THAN 20 (MSHR OCC = 3)
NO PREFETCH REQUEST BECAUSE PREFETCH SCORE 4 IS NOT GREATER THAN 20 (MSHR OCC = 2)
NO PREFETCH REQUEST BECAUSE PREFETCH SCORE 4 IS NOT GREATER THAN 20 (MSHR OCC = 2)
NO PREFETCH REQUEST BECAUSE PREFETCH SCORE 4 IS NOT GREATER THAN 20 (MSHR OCC = 2)
NO PREFETCH REQUEST BECAUSE PREFETCH SCORE 4 IS NOT GREATER THAN 20 (MSHR OCC = 2)
NO PREFETCH REQUEST BECAUSE PREFETCH SCORE 4 IS NOT GREATER THAN 20 (MSHR OCC = 2)
NO PREFETCH REQUEST BECAUSE PREFETCH SCORE 4 IS NOT GREATER THAN 20 (MSHR OCC = 2)
NO PREFETCH REQUEST BECAUSE PREFETCH SCORE 4 IS NOT GREATER THAN 20 (MSHR OCC = 2)
NO PREFETCH REQUEST BECAUSE PREFETCH SCORE 4 IS NOT GREATER THAN 20 (MSHR OCC = 3)
NO PREFETCH REQUEST BECAUSE PREFETCH SCORE 4 IS NOT GREATER THAN 20 (MSHR OCC = 4)
NO PREFETCH REQUEST BECAUSE PREFETCH SCORE 4 IS NOT GREATER THAN 20 (MSHR OCC = 5)
NO PREFETCH REQUEST BECAUSE PREFETCH SCORE 4 IS NOT GREATER THAN 20 (MSHR OCC = 2)
NO PREFETCH REQUEST BECAUSE PREFETCH SCORE 4 IS NOT GREATER THAN 20 (MSHR OCC = 4)
NO PREFETCH REQUEST BECAUSE PREFETCH SCORE 4 IS NOT GREATER THAN 20 (MSHR OCC = 5)
NO PREFETCH REQUEST BECAUSE PREFETCH SCORE 4 IS NOT GREATER THAN 20 (MSHR OCC = 6)
NO PREFETCH REQUEST BECAUSE PREFETCH SCORE 4 IS NOT GREATER THAN 20 (MSHR OCC = 2)
NO PREFETCH REQUEST BECAUSE PREFETCH SCORE 4 IS NOT GREATER THAN 20 (MSHR OCC = 2)
NO PREFETCH REQUEST BECAUSE PREFETCH SCORE 4 IS NOT GREATER THAN 20 (MSHR OCC = 2)
NO PREFETCH REQUEST BECAUSE PREFETCH SCORE 4 IS NOT GREATER THAN 20 (MSHR OCC = 2)
NO PREFETCH REQUEST BECAUSE PREFETCH SCORE 4 IS NOT GREATER THAN 20 (MSHR OCC = 3)
NO PREFETCH REQUEST BECAUSE PREFETCH SCORE 4 IS NOT GREATER THAN 20 (MSHR OCC = 3)
NO PREFETCH REQUEST BECAUSE PREFETCH SCORE 4 IS NOT GREATER THAN 20 (MSHR OCC = 3)
NO PREFETCH REQUEST BECAUSE PREFETCH SCORE 4 IS NOT GREATER THAN 20 (MSHR OCC = 3)
NO PREFETCH REQUEST BECAUSE PREFETCH SCORE 4 IS NOT GREATER THAN 20 (MSHR OCC = 3)
NO PREFETCH REQUEST BECAUSE PREFETCH SCORE 4 IS NOT GREATER THAN 20 (MSHR OCC = 2)
NO PREFETCH REQUEST BECAUSE PREFETCH SCORE 4 IS NOT GREATER THAN 20 (MSHR OCC = 3)
NO PREFETCH REQUEST BECAUSE PREFETCH SCORE 4 IS NOT GREATER THAN 20 (MSHR OCC = 4)
NO PREFETCH REQUEST BECAUSE PREFETCH SCORE 4 IS NOT GREATER THAN 20 (MSHR OCC = 2)
NO PREFETCH REQUEST BECAUSE PREFETCH SCORE 4 IS NOT GREATER THAN 20 (MSHR OCC = 2)
NO PREFETCH REQUEST BECAUSE PREFETCH SCORE 4 IS NOT GREATER THAN 20 (MSHR OCC = 3)
NO PREFETCH REQUEST BECAUSE PREFETCH SCORE 4 IS NOT GREATER THAN 20 (MSHR OCC = 4)
NO PREFETCH REQUEST BECAUSE PREFETCH SCORE 4 IS NOT GREATER THAN 20 (MSHR OCC = 2)
NO PREFETCH REQUEST BECAUSE PREFETCH SCORE 4 IS NOT GREATER THAN 20 (MSHR OCC = 3)
NO PREFETCH REQUEST BECAUSE PREFETCH SCORE 4 IS NOT GREATER THAN 20 (MSHR OCC = 3)
NO PREFETCH REQUEST BECAUSE PREFETCH SCORE 4 IS NOT GREATER THAN 20 (MSHR OCC = 2)
NO PREFETCH REQUEST BECAUSE PREFETCH SCORE 4 IS NOT GREATER THAN 20 (MSHR OCC = 3)
NO PREFETCH REQUEST BECAUSE PREFETCH SCORE 4 IS NOT GREATER THAN 20 (MSHR OCC = 3)
NO PREFETCH REQUEST BECAUSE PREFETCH SCORE 4 IS NOT GREATER THAN 20 (MSHR OCC = 4)
NO PREFETCH REQUEST BECAUSE PREFETCH SCORE 4 IS NOT GREATER THAN 20 (MSHR OCC = 4)
NO PREFETCH REQUEST BECAUSE PREFETCH SCORE 4 IS NOT GREATER THAN 20 (MSHR OCC = 2)
NO PREFETCH REQUEST BECAUSE PREFETCH SCORE 4 IS NOT GREATER THAN 20 (MSHR OCC = 3)
NO PREFETCH REQUEST BECAUSE PREFETCH SCORE 4 IS NOT GREATER THAN 20 (MSHR OCC = 3)
NO PREFETCH REQUEST BECAUSE PREFETCH SCORE 4 IS NOT GREATER THAN 20 (MSHR OCC = 3)
NO PREFETCH REQUEST BECAUSE PREFETCH SCORE 4 IS NOT GREATER THAN 20 (MSHR OCC = 2)
NO PREFETCH REQUEST BECAUSE PREFETCH SCORE 4 IS NOT GREATER THAN 20 (MSHR OCC = 2)
NO PREFETCH REQUEST BECAUSE PREFETCH SCORE 4 IS NOT GREATER THAN 20 (MSHR OCC = 2)
NO PREFETCH REQUEST BECAUSE PREFETCH SCORE 4 IS NOT GREATER THAN 20 (MSHR OCC = 3)
NO PREFETCH REQUEST BECAUSE PREFETCH SCORE 4 IS NOT GREATER THAN 20 (MSHR OCC = 2)
NO PREFETCH REQUEST BECAUSE PREFETCH SCORE 4 IS NOT GREATER THAN 20 (MSHR OCC = 3)
NO PREFETCH REQUEST BECAUSE PREFETCH SCORE 4 IS NOT GREATER THAN 20 (MSHR OCC = 3)
NO PREFETCH REQUEST BECAUSE PREFETCH SCORE 4 IS NOT GREATER THAN 20 (MSHR OCC = 3)
NO PREFETCH REQUEST BECAUSE PREFETCH SCORE 4 IS NOT GREATER THAN 20 (MSHR OCC = 2)
NO PREFETCH REQUEST BECAUSE PREFETCH SCORE 4 IS NOT GREATER THAN 20 (MSHR OCC = 2)
NO PREFETCH REQUEST BECAUSE PREFETCH SCORE 4 IS NOT GREATER THAN 20 (MSHR OCC = 2)
NO PREFETCH REQUEST BECAUSE PREFETCH SCORE 4 IS NOT GREATER THAN 20 (MSHR OCC = 2)
NO PREFETCH REQUEST BECAUSE PREFETCH SCORE 4 IS NOT GREATER THAN 20 (MSHR OCC = 2)
NO PREFETCH REQUEST BECAUSE PREFETCH SCORE 4 IS NOT GREATER THAN 20 (MSHR OCC = 3)
NO PREFETCH REQUEST BECAUSE PREFETCH SCORE 4 IS NOT GREATER THAN 20 (MSHR OCC = 2)
NO PREFETCH REQUEST BECAUSE PREFETCH SCORE 4 IS NOT GREATER THAN 20 (MSHR OCC = 2)
NO PREFETCH REQUEST BECAUSE PREFETCH SCORE 4 IS NOT GREATER THAN 20 (MSHR OCC = 2)
NO PREFETCH REQUEST BECAUSE PREFETCH SCORE 4 IS NOT GREATER THAN 20 (MSHR OCC = 3)
NO PREFETCH REQUEST BECAUSE PREFETCH SCORE 4 IS NOT GREATER THAN 20 (MSHR OCC = 2)
NO PREFETCH REQUEST BECAUSE PREFETCH SCORE 4 IS NOT GREATER THAN 20 (MSHR OCC = 2)
NO PREFETCH REQUEST BECAUSE PREFETCH SCORE 4 IS NOT GREATER THAN 20 (MSHR OCC = 2)
NO PREFETCH REQUEST BECAUSE PREFETCH SCORE 4 IS NOT GREATER THAN 20 (MSHR OCC = 2)
NO PREFETCH REQUEST BECAUSE PREFETCH SCORE 4 IS NOT GREATER THAN 20 (MSHR OCC = 3)
NO PREFETCH REQUEST BECAUSE PREFETCH SCORE 4 IS NOT GREATER THAN 20 (MSHR OCC = 4)
NO PREFETCH REQUEST BECAUSE PREFETCH SCORE 4 IS NOT GREATER THAN 20 (MSHR OCC = 4)
NO PREFETCH REQUEST BECAUSE PREFETCH SCORE 4 IS NOT GREATER THAN 20 (MSHR OCC = 3)
NO PREFETCH REQUEST BECAUSE PREFETCH SCORE 4 IS NOT GREATER THAN 20 (MSHR OCC = 2)
NO PREFETCH REQUEST BECAUSE PREFETCH SCORE 4 IS NOT GREATER THAN 20 (MSHR OCC = 3)
NO PREFETCH REQUEST BECAUSE PREFETCH SCORE 4 IS NOT GREATER THAN 20 (MSHR OCC = 3)
NO PREFETCH REQUEST BECAUSE PREFETCH SCORE 4 IS NOT GREATER THAN 20 (MSHR OCC = 2)
NO PREFETCH REQUEST BECAUSE PREFETCH SCORE 4 IS NOT GREATER THAN 20 (MSHR OCC = 2)
NO PREFETCH REQUEST BECAUSE PREFETCH SCORE 4 IS NOT GREATER THAN 20 (MSHR OCC = 2)
NO PREFETCH REQUEST BECAUSE PREFETCH SCORE 4 IS NOT GREATER THAN 20 (MSHR OCC = 2)
NO PREFETCH REQUEST BECAUSE PREFETCH SCORE 4 IS NOT GREATER THAN 20 (MSHR OCC = 2)
NO PREFETCH REQUEST BECAUSE PREFETCH SCORE 4 IS NOT GREATER THAN 20 (MSHR OCC = 2)
NO PREFETCH REQUEST BECAUSE PREFETCH SCORE 4 IS NOT GREATER THAN 20 (MSHR OCC = 3)
NO PREFETCH REQUEST BECAUSE PREFETCH SCORE 4 IS NOT GREATER THAN 20 (MSHR OCC = 2)
NO PREFETCH REQUEST BECAUSE PREFETCH SCORE 4 IS NOT GREATER THAN 20 (MSHR OCC = 2)
NO PREFETCH REQUEST BECAUSE PREFETCH SCORE 4 IS NOT GREATER THAN 20 (MSHR OCC = 2)
NO PREFETCH REQUEST BECAUSE PREFETCH SCORE 4 IS NOT GREATER THAN 20 (MSHR OCC = 2)
NO PREFETCH REQUEST BECAUSE PREFETCH SCORE 4 IS NOT GREATER THAN 20 (MSHR OCC = 2)
NO PREFETCH REQUEST BECAUSE PREFETCH SCORE 4 IS NOT GREATER THAN 20 (MSHR OCC = 2)
NO PREFETCH REQUEST BECAUSE PREFETCH SCORE 4 IS NOT GREATER THAN 20 (MSHR OCC = 2)
NO PREFETCH REQUEST BECAUSE PREFETCH SCORE 4 IS NOT GREATER THAN 20 (MSHR OCC = 2)
NO PREFETCH REQUEST BECAUSE PREFETCH SCORE 4 IS NOT GREATER THAN 20 (MSHR OCC = 2)
NO PREFETCH REQUEST BECAUSE PREFETCH SCORE 4 IS NOT GREATER THAN 20 (MSHR OCC = 2)
NO PREFETCH REQUEST BECAUSE PREFETCH SCORE 4 IS NOT GREATER THAN 20 (MSHR OCC = 2)
NO PREFETCH REQUEST BECAUSE PREFETCH SCORE 4 IS NOT GREATER THAN 20 (MSHR OCC = 2)
NO PREFETCH REQUEST BECAUSE PREFETCH SCORE 4 IS NOT GREATER THAN 20 (MSHR OCC = 2)
NO PREFETCH REQUEST BECAUSE PREFETCH SCORE 4 IS NOT GREATER THAN 20 (MSHR OCC = 2)
NO PREFETCH REQUEST BECAUSE PREFETCH SCORE 4 IS NOT GREATER THAN 20 (MSHR OCC = 3)
NO PREFETCH REQUEST BECAUSE PREFETCH SCORE 4 IS NOT GREATER THAN 20 (MSHR OCC = 2)
NO PREFETCH REQUEST BECAUSE PREFETCH SCORE 4 IS NOT GREATER THAN 20 (MSHR OCC = 3)
NO PREFETCH REQUEST BECAUSE PREFETCH SCORE 4 IS NOT GREATER THAN 20 (MSHR OCC = 2)
NO PREFETCH REQUEST BECAUSE PREFETCH SCORE 4 IS NOT GREATER THAN 20 (MSHR OCC = 2)
NO PREFETCH REQUEST BECAUSE PREFETCH SCORE 4 IS NOT GREATER THAN 20 (MSHR OCC = 2)
NO PREFETCH REQUEST BECAUSE PREFETCH SCORE 4 IS NOT GREATER THAN 20 (MSHR OCC = 2)
NO PREFETCH REQUEST BECAUSE PREFETCH SCORE 4 IS NOT GREATER THAN 20 (MSHR OCC = 2)
NO PREFETCH REQUEST BECAUSE PREFETCH SCORE 4 IS NOT GREATER THAN 20 (MSHR OCC = 2)
NO PREFETCH REQUEST BECAUSE PREFETCH SCORE 4 IS NOT GREATER THAN 20 (MSHR OCC = 2)
NO PREFETCH REQUEST BECAUSE PREFETCH SCORE 4 IS NOT GREATER THAN 20 (MSHR OCC = 2)
NO PREFETCH REQUEST BECAUSE PREFETCH SCORE 4 IS NOT GREATER THAN 20 (MSHR OCC = 2)
NO PREFETCH REQUEST BECAUSE PREFETCH SCORE 4 IS NOT GREATER THAN 20 (MSHR OCC = 2)
CHANGING MSHR THRESHOLD FROM 2 TO 3
CHANGING MSHR THRESHOLD FROM 3 TO 5
CHANGING MSHR THRESHOLD FROM 5 TO 6
CHANGING MSHR THRESHOLD FROM 6 TO 8
CHANGING MSHR THRESHOLD FROM 8 TO 10
CHANGING MSHR THRESHOLD FROM 10 TO 11
CHANGING MSHR THRESHOLD FROM 11 TO 13
CHANGING MSHR THRESHOLD FROM 13 TO 15
CHANGING MSHR THRESHOLD FROM 15 TO 16
CHANGING MSHR THRESHOLD FROM 16 TO 18
CHANGING MSHR THRESHOLD FROM 18 TO 19
CHANGING MSHR THRESHOLD FROM 19 TO 21
CHANGING MSHR THRESHOLD FROM 21 TO 23
CHANGING MSHR THRESHOLD FROM 23 TO 24
CHANGING MSHR THRESHOLD FROM 24 TO 26
CHANGING MSHR THRESHOLD FROM 26 TO 28
OFFSET CHANGED FROM 2 TO 3
CHANGING MSHR THRESHOLD FROM 28 TO 26
CHANGING MSHR THRESHOLD FROM 26 TO 24
CHANGING MSHR THRESHOLD FROM 24 TO 23
CHANGING MSHR THRESHOLD FROM 23 TO 21
CHANGING MSHR THRESHOLD FROM 21 TO 19
CHANGING MSHR THRESHOLD FROM 19 TO 18
CHANGING MSHR THRESHOLD FROM 18 TO 16
CHANGING MSHR THRESHOLD FROM 16 TO 18
CHANGING MSHR THRESHOLD FROM 18 TO 19
CHANGING MSHR THRESHOLD FROM 19 TO 21
CHANGING MSHR THRESHOLD FROM 21 TO 23
CHANGING MSHR THRESHOLD FROM 23 TO 24
CHANGING MSHR THRESHOLD FROM 24 TO 26
CHANGING MSHR THRESHOLD FROM 26 TO 28
OFFSET CHANGED FROM 3 TO 1
CHANGING MSHR THRESHOLD FROM 28 TO 26
CHANGING MSHR THRESHOLD FROM 26 TO 24
CHANGING MSHR THRESHOLD FROM 24 TO 23
CHANGING MSHR THRESHOLD FROM 23 TO 21
CHANGING MSHR THRESHOLD FROM 21 TO 19
CHANGING MSHR THRESHOLD FROM 19 TO 18
CHANGING MSHR THRESHOLD FROM 18 TO 16
CHANGING MSHR THRESHOLD FROM 16 TO 15
CHANGING MSHR THRESHOLD FROM 15 TO 13
CHANGING MSHR THRESHOLD FROM 13 TO 11
CHANGING MSHR THRESHOLD FROM 11 TO 10
CHANGING MSHR THRESHOLD FROM 10 TO 8
CHANGING MSHR THRESHOLD FROM 8 TO 6
CHANGING MSHR THRESHOLD FROM 6 TO 5
CHANGING MSHR THRESHOLD FROM 5 TO 3
NO PREFETCH REQUEST BECAUSE PREFETCH SCORE 8 IS NOT GREATER THAN 20 (MSHR OCC = 3)
NO PREFETCH REQUEST BECAUSE PREFETCH SCORE 8 IS NOT GREATER THAN 20 (MSHR OCC = 3)
CHANGING MSHR THRESHOLD FROM 3 TO 5
CHANGING MSHR THRESHOLD FROM 5 TO 6
CHANGING MSHR THRESHOLD FROM 6 TO 8
CHANGING MSHR THRESHOLD FROM 8 TO 10
CHANGING MSHR THRESHOLD FROM 10 TO 11
CHANGING MSHR THRESHOLD FROM 11 TO 13
CHANGING MSHR THRESHOLD FROM 13 TO 15
CHANGING MSHR THRESHOLD FROM 15 TO 16
CHANGING MSHR THRESHOLD FROM 16 TO 18
CHANGING MSHR THRESHOLD FROM 18 TO 19
CHANGING MSHR THRESHOLD FROM 19 TO 21
CHANGING MSHR THRESHOLD FROM 21 TO 23
CHANGING MSHR THRESHOLD FROM 23 TO 24
CHANGING MSHR THRESHOLD FROM 24 TO 26
CHANGING MSHR THRESHOLD FROM 26 TO 28
OFFSET CHANGED FROM 1 TO 1
CHANGING MSHR THRESHOLD FROM 28 TO 26
CHANGING MSHR THRESHOLD FROM 26 TO 24
CHANGING MSHR THRESHOLD FROM 24 TO 23
CHANGING MSHR THRESHOLD FROM 23 TO 21
CHANGING MSHR THRESHOLD FROM 21 TO 19
CHANGING MSHR THRESHOLD FROM 19 TO 18
CHANGING MSHR THRESHOLD FROM 18 TO 16
CHANGING MSHR THRESHOLD FROM 16 TO 15
CHANGING MSHR THRESHOLD FROM 15 TO 13
CHANGING MSHR THRESHOLD FROM 13 TO 11
CHANGING MSHR THRESHOLD FROM 11 TO 10
CHANGING MSHR THRESHOLD FROM 10 TO 8
NO PREFETCH REQUEST BECAUSE PREFETCH SCORE 6 IS NOT GREATER THAN 20 (MSHR OCC = 8)
NO PREFETCH REQUEST BECAUSE PREFETCH SCORE 6 IS NOT GREATER THAN 20 (MSHR OCC = 9)
NO PREFETCH REQUEST BECAUSE PREFETCH SCORE 6 IS NOT GREATER THAN 20 (MSHR OCC = 8)
CHANGING MSHR THRESHOLD FROM 8 TO 10
CHANGING MSHR THRESHOLD FROM 10 TO 11
CHANGING MSHR THRESHOLD FROM 11 TO 13
CHANGING MSHR THRESHOLD FROM 13 TO 15
CHANGING MSHR THRESHOLD FROM 15 TO 16
CHANGING MSHR THRESHOLD FROM 16 TO 18
CHANGING MSHR THRESHOLD FROM 18 TO 19
CHANGING MSHR THRESHOLD FROM 19 TO 21
CHANGING MSHR THRESHOLD FROM 21 TO 23
CHANGING MSHR THRESHOLD FROM 23 TO 24
CHANGING MSHR THRESHOLD FROM 24 TO 26
CHANGING MSHR THRESHOLD FROM 26 TO 28
Heartbeat CPU 0 instructions: 90000000 cycles: 75220610 heartbeat IPC: 1.44905 cumulative IPC: 1.10478 (Simulation time: 0 hr 2 min 21 sec) 
Heartbeat CPU 0 instructions: 100000002 cycles: 84784253 heartbeat IPC: 1.04563 cumulative IPC: 1.09788 (Simulation time: 0 hr 2 min 36 sec) 
OFFSET CHANGED FROM 1 TO 1
Heartbeat CPU 0 instructions: 110000000 cycles: 94175859 heartbeat IPC: 1.06478 cumulative IPC: 1.09448 (Simulation time: 0 hr 2 min 52 sec) 
Finished CPU 0 instructions: 100000000 cycles: 91367541 cumulative IPC: 1.09448 (Simulation time: 0 hr 2 min 52 sec) 

ChampSim completed all CPUs

Region of Interest Statistics

CPU 0 cumulative IPC: 1.09448 instructions: 100000000 cycles: 91367541
L1D TOTAL     ACCESS:   23932952  HIT:   23168570  MISS:     764382
L1D LOAD      ACCESS:   14426749  HIT:   13753881  MISS:     672868
L1D RFO       ACCESS:    9506203  HIT:    9414689  MISS:      91514
L1D PREFETCH  ACCESS:          0  HIT:          0  MISS:          0
L1D WRITEBACK ACCESS:          0  HIT:          0  MISS:          0
L1D PREFETCH  REQUESTED:          0  ISSUED:          0  USEFUL:          0  USELESS:          0
L1D AVERAGE MISS LATENCY: 52.3206 cycles
L1I TOTAL     ACCESS:   16429122  HIT:   16428981  MISS:        141
L1I LOAD      ACCESS:   16429057  HIT:   16428962  MISS:         95
L1I RFO       ACCESS:          0  HIT:          0  MISS:          0
L1I PREFETCH  ACCESS:         65  HIT:         19  MISS:         46
L1I WRITEBACK ACCESS:          0  HIT:          0  MISS:          0
L1I PREFETCH  REQUESTED:        118  ISSUED:        118  USEFUL:         38  USELESS:          0
L1I AVERAGE MISS LATENCY: 110.539 cycles
L2C TOTAL     ACCESS:    1388557  HIT:     798235  MISS:     590322
L2C LOAD      ACCESS:     672948  HIT:     399144  MISS:     273804
L2C RFO       ACCESS:      91514  HIT:      16360  MISS:      75154
L2C PREFETCH  ACCESS:     480214  HIT:     238909  MISS:     241305
L2C WRITEBACK ACCESS:     143881  HIT:     143822  MISS:         59
L2C PREFETCH  REQUESTED:     505771  ISSUED:     505771  USEFUL:     103014  USELESS:     140721
L2C AVERAGE MISS LATENCY: 81.6205 cycles
LLC TOTAL     ACCESS:     703224  HIT:     509822  MISS:     193402
LLC LOAD      ACCESS:     248244  HIT:     201039  MISS:      47205
LLC RFO       ACCESS:      75153  HIT:      19157  MISS:      55996
LLC PREFETCH  ACCESS:     266866  HIT:     177100  MISS:      89766
LLC WRITEBACK ACCESS:     112961  HIT:     112526  MISS:        435
LLC PREFETCH  REQUESTED:          0  ISSUED:          0  USEFUL:      39419  USELESS:      51504
LLC AVERAGE MISS LATENCY: 172.847 cycles
Major fault: 0 Minor fault: 1136
CPU 0 L1I next line prefetcher final stats
CPU 0 L2C best offset prefetcher final stats
LEFT ARRAY ACCESS COUNTER
Number of cycles w/ accesses: 796699
RIGHT ARRAY ACCESS COUNTER
Number of cycles w/ accesses: 1129272

DRAM Statistics
 CHANNEL 0
 RQ ROW_BUFFER_HIT:      27034  ROW_BUFFER_MISS:     165896
 DBUS_CONGESTED:      63968
 WQ ROW_BUFFER_HIT:      36352  ROW_BUFFER_MISS:      59606  FULL:          0

 AVG_CONGESTED_CYCLE: 6

CPU 0 Branch Prediction Accuracy: 90.3137% MPKI: 15.4757 Average ROB Occupancy at Mispredict: 19.1006

Branch types
NOT_BRANCH: 84022866 84.0229%
BRANCH_DIRECT_JUMP: 1392656 1.39266%
BRANCH_INDIRECT: 42 4.2e-05%
BRANCH_CONDITIONAL: 14580814 14.5808%
BRANCH_DIRECT_CALL: 1648 0.001648%
BRANCH_INDIRECT_CALL: 0 0%
BRANCH_RETURN: 1647 0.001647%
BRANCH_OTHER: 0 0%

