
*** ChampSim Multicore Out-of-Order Simulator ***

Warmup Instructions: 50000000
Simulation Instructions: 250000000
Number of CPUs: 1
LLC sets: 2048
LLC ways: 16
Off-chip DRAM Size: 4096 MB Channels: 1 Width: 64-bit Data Rate: 3200 MT/s

CPU 0 runs /home/wezelis2/ECE511_Project/ChampSim/dpc3_traces/456.hmmer-327B.champsimtrace.xz
CPU 0 Bimodal branch predictor
CPU 0 L1I next line prefetcher
Heartbeat CPU 0 instructions: 10000000 cycles: 4816812 heartbeat IPC: 2.07606 cumulative IPC: 2.07606 (Simulation time: 0 hr 0 min 26 sec) 
Heartbeat CPU 0 instructions: 20000003 cycles: 9629772 heartbeat IPC: 2.07772 cumulative IPC: 2.07689 (Simulation time: 0 hr 0 min 52 sec) 
Heartbeat CPU 0 instructions: 30000001 cycles: 14431292 heartbeat IPC: 2.08267 cumulative IPC: 2.07882 (Simulation time: 0 hr 1 min 19 sec) 
Heartbeat CPU 0 instructions: 40000002 cycles: 19240190 heartbeat IPC: 2.07948 cumulative IPC: 2.07898 (Simulation time: 0 hr 1 min 46 sec) 
Heartbeat CPU 0 instructions: 50000003 cycles: 24047194 heartbeat IPC: 2.0803 cumulative IPC: 2.07924 (Simulation time: 0 hr 2 min 12 sec) 

Warmup complete CPU 0 instructions: 50000003 cycles: 24047194 (Simulation time: 0 hr 2 min 12 sec) 

Heartbeat CPU 0 instructions: 60000000 cycles: 29820580 heartbeat IPC: 1.73209 cumulative IPC: 1.73209 (Simulation time: 0 hr 2 min 38 sec) 
Heartbeat CPU 0 instructions: 70000002 cycles: 35584614 heartbeat IPC: 1.7349 cumulative IPC: 1.73349 (Simulation time: 0 hr 3 min 4 sec) 
Heartbeat CPU 0 instructions: 80000002 cycles: 41354804 heartbeat IPC: 1.73305 cumulative IPC: 1.73334 (Simulation time: 0 hr 3 min 29 sec) 
Heartbeat CPU 0 instructions: 90000000 cycles: 47846099 heartbeat IPC: 1.54052 cumulative IPC: 1.68075 (Simulation time: 0 hr 3 min 56 sec) 
Heartbeat CPU 0 instructions: 100000003 cycles: 53889634 heartbeat IPC: 1.65466 cumulative IPC: 1.67547 (Simulation time: 0 hr 4 min 22 sec) 
Heartbeat CPU 0 instructions: 110000000 cycles: 59964549 heartbeat IPC: 1.64611 cumulative IPC: 1.6705 (Simulation time: 0 hr 4 min 48 sec) 
Heartbeat CPU 0 instructions: 120000000 cycles: 65777684 heartbeat IPC: 1.72024 cumulative IPC: 1.67743 (Simulation time: 0 hr 5 min 13 sec) 
Heartbeat CPU 0 instructions: 130000001 cycles: 71547151 heartbeat IPC: 1.73326 cumulative IPC: 1.68421 (Simulation time: 0 hr 5 min 39 sec) 
Heartbeat CPU 0 instructions: 140000001 cycles: 77407598 heartbeat IPC: 1.70635 cumulative IPC: 1.68664 (Simulation time: 0 hr 6 min 5 sec) 
Heartbeat CPU 0 instructions: 150000003 cycles: 83174755 heartbeat IPC: 1.73396 cumulative IPC: 1.69126 (Simulation time: 0 hr 6 min 30 sec) 
Heartbeat CPU 0 instructions: 160000001 cycles: 88943216 heartbeat IPC: 1.73356 cumulative IPC: 1.69502 (Simulation time: 0 hr 6 min 56 sec) 
Heartbeat CPU 0 instructions: 170000001 cycles: 94707277 heartbeat IPC: 1.73489 cumulative IPC: 1.69827 (Simulation time: 0 hr 7 min 22 sec) 
Heartbeat CPU 0 instructions: 180000000 cycles: 100552487 heartbeat IPC: 1.7108 cumulative IPC: 1.69923 (Simulation time: 0 hr 7 min 47 sec) 
Heartbeat CPU 0 instructions: 190000000 cycles: 106410994 heartbeat IPC: 1.70692 cumulative IPC: 1.69978 (Simulation time: 0 hr 8 min 13 sec) 
Heartbeat CPU 0 instructions: 200000002 cycles: 113798297 heartbeat IPC: 1.35367 cumulative IPC: 1.67129 (Simulation time: 0 hr 8 min 41 sec) 
Heartbeat CPU 0 instructions: 210000002 cycles: 121224402 heartbeat IPC: 1.3466 cumulative IPC: 1.64648 (Simulation time: 0 hr 9 min 9 sec) 
Heartbeat CPU 0 instructions: 220000000 cycles: 128896996 heartbeat IPC: 1.30334 cumulative IPC: 1.62137 (Simulation time: 0 hr 9 min 37 sec) 
Heartbeat CPU 0 instructions: 230000000 cycles: 136273329 heartbeat IPC: 1.35569 cumulative IPC: 1.6039 (Simulation time: 0 hr 10 min 5 sec) 
Heartbeat CPU 0 instructions: 240000003 cycles: 143747968 heartbeat IPC: 1.33786 cumulative IPC: 1.58729 (Simulation time: 0 hr 10 min 33 sec) 
Heartbeat CPU 0 instructions: 250000003 cycles: 151106951 heartbeat IPC: 1.35888 cumulative IPC: 1.57406 (Simulation time: 0 hr 11 min 1 sec) 
Heartbeat CPU 0 instructions: 260000002 cycles: 158541808 heartbeat IPC: 1.34502 cumulative IPC: 1.5614 (Simulation time: 0 hr 11 min 29 sec) 
Heartbeat CPU 0 instructions: 270000002 cycles: 166003858 heartbeat IPC: 1.34011 cumulative IPC: 1.54977 (Simulation time: 0 hr 11 min 57 sec) 
Heartbeat CPU 0 instructions: 280000002 cycles: 173356117 heartbeat IPC: 1.36013 cumulative IPC: 1.54043 (Simulation time: 0 hr 12 min 25 sec) 
Heartbeat CPU 0 instructions: 290000000 cycles: 180813320 heartbeat IPC: 1.34099 cumulative IPC: 1.53094 (Simulation time: 0 hr 12 min 53 sec) 
Heartbeat CPU 0 instructions: 300000000 cycles: 188182236 heartbeat IPC: 1.35705 cumulative IPC: 1.52314 (Simulation time: 0 hr 13 min 21 sec) 
Finished CPU 0 instructions: 250000001 cycles: 164135043 cumulative IPC: 1.52314 (Simulation time: 0 hr 13 min 21 sec) 

ChampSim completed all CPUs

Region of Interest Statistics

CPU 0 cumulative IPC: 1.52314 instructions: 250000001 cycles: 164135043
L1D TOTAL     ACCESS:   86185448  HIT:   85161245  MISS:    1024203
L1D LOAD      ACCESS:   71334293  HIT:   70975483  MISS:     358810
L1D RFO       ACCESS:   14851155  HIT:   14185762  MISS:     665393
L1D PREFETCH  ACCESS:          0  HIT:          0  MISS:          0
L1D WRITEBACK ACCESS:          0  HIT:          0  MISS:          0
L1D PREFETCH  REQUESTED:          0  ISSUED:          0  USEFUL:          0  USELESS:          0
L1D AVERAGE MISS LATENCY: 101.731 cycles
L1I TOTAL     ACCESS:   41277624  HIT:   41277618  MISS:          6
L1I LOAD      ACCESS:   41277621  HIT:   41277617  MISS:          4
L1I RFO       ACCESS:          0  HIT:          0  MISS:          0
L1I PREFETCH  ACCESS:          3  HIT:          1  MISS:          2
L1I WRITEBACK ACCESS:          0  HIT:          0  MISS:          0
L1I PREFETCH  REQUESTED:          4  ISSUED:          4  USEFUL:          3  USELESS:          1
L1I AVERAGE MISS LATENCY: 218.667 cycles
L2C TOTAL     ACCESS:    1690921  HIT:    1017607  MISS:     673314
L2C LOAD      ACCESS:     358814  HIT:     334469  MISS:      24345
L2C RFO       ACCESS:     665393  HIT:      16494  MISS:     648899
L2C PREFETCH  ACCESS:          2  HIT:          0  MISS:          2
L2C WRITEBACK ACCESS:     666712  HIT:     666644  MISS:         68
L2C PREFETCH  REQUESTED:          0  ISSUED:          0  USEFUL:          0  USELESS:          2
L2C AVERAGE MISS LATENCY: 131.893 cycles
LLC TOTAL     ACCESS:    1324265  HIT:    1003440  MISS:     320825
LLC LOAD      ACCESS:      24345  HIT:      17387  MISS:       6958
LLC RFO       ACCESS:     648899  HIT:     335057  MISS:     313842
LLC PREFETCH  ACCESS:          2  HIT:          0  MISS:          2
LLC WRITEBACK ACCESS:     651019  HIT:     650996  MISS:         23
LLC PREFETCH  REQUESTED:          0  ISSUED:          0  USEFUL:          0  USELESS:        172
LLC AVERAGE MISS LATENCY: 213.837 cycles
Major fault: 0 Minor fault: 2245
CPU 0 L1I next line prefetcher final stats

DRAM Statistics
 CHANNEL 0
 RQ ROW_BUFFER_HIT:     189610  ROW_BUFFER_MISS:     131192
 DBUS_CONGESTED:       8503
 WQ ROW_BUFFER_HIT:      97991  ROW_BUFFER_MISS:     214988  FULL:          0

 AVG_CONGESTED_CYCLE: 6

CPU 0 Branch Prediction Accuracy: 99.402% MPKI: 0.264272 Average ROB Occupancy at Mispredict: 87.882

Branch types
NOT_BRANCH: 238951824 95.5807%
BRANCH_DIRECT_JUMP: 43649 0.0174596%
BRANCH_INDIRECT: 14325 0.00573%
BRANCH_CONDITIONAL: 10910018 4.36401%
BRANCH_DIRECT_CALL: 39823 0.0159292%
BRANCH_INDIRECT_CALL: 266 0.0001064%
BRANCH_RETURN: 40089 0.0160356%
BRANCH_OTHER: 0 0%

