
*** ChampSim Multicore Out-of-Order Simulator ***

Warmup Instructions: 50000000
Simulation Instructions: 250000000
Number of CPUs: 1
LLC sets: 2048
LLC ways: 16
Off-chip DRAM Size: 4096 MB Channels: 1 Width: 64-bit Data Rate: 3200 MT/s

CPU 0 runs /home/wezelis2/ECE511_Project/ChampSim/dpc3_traces/429.mcf-217B.champsimtrace.xz
CPU 0 Bimodal branch predictor
CPU 0 L1I next line prefetcher
INIT BEST RECENT REQUEST TABLE MODULE
INIT DELAY QUEUE MODULE
INIT PREFETCH THROTTLE MODULE
INIT OFFSET SCORE MODULE
INIT BEST OFFSET PREFETCHER
OFFSET CHANGED FROM 1 TO -3
OFFSET CHANGED FROM -3 TO -6
OFFSET CHANGED FROM -6 TO -6
OFFSET CHANGED FROM -6 TO -12
OFFSET CHANGED FROM -12 TO -3
OFFSET CHANGED FROM -3 TO -6
OFFSET CHANGED FROM -6 TO -12
OFFSET CHANGED FROM -12 TO -9
OFFSET CHANGED FROM -9 TO -9
OFFSET CHANGED FROM -9 TO -9
OFFSET CHANGED FROM -9 TO -9
OFFSET CHANGED FROM -9 TO -15
OFFSET CHANGED FROM -15 TO -6
OFFSET CHANGED FROM -6 TO -12
OFFSET CHANGED FROM -12 TO -12
OFFSET CHANGED FROM -12 TO -12
OFFSET CHANGED FROM -12 TO -9
OFFSET CHANGED FROM -9 TO -6
OFFSET CHANGED FROM -6 TO -6
OFFSET CHANGED FROM -6 TO -6
OFFSET CHANGED FROM -6 TO -6
OFFSET CHANGED FROM -6 TO -3
OFFSET CHANGED FROM -3 TO -3
OFFSET CHANGED FROM -3 TO -12
OFFSET CHANGED FROM -12 TO -12
OFFSET CHANGED FROM -12 TO -6
OFFSET CHANGED FROM -6 TO -9
OFFSET CHANGED FROM -9 TO -9
OFFSET CHANGED FROM -9 TO -12
OFFSET CHANGED FROM -12 TO -9
OFFSET CHANGED FROM -9 TO -6
OFFSET CHANGED FROM -6 TO -6
OFFSET CHANGED FROM -6 TO -3
OFFSET CHANGED FROM -3 TO -9
OFFSET CHANGED FROM -9 TO -12
OFFSET CHANGED FROM -12 TO -3
OFFSET CHANGED FROM -3 TO -12
OFFSET CHANGED FROM -12 TO -6
OFFSET CHANGED FROM -6 TO -12
OFFSET CHANGED FROM -12 TO -9
OFFSET CHANGED FROM -9 TO -6
OFFSET CHANGED FROM -6 TO -12
OFFSET CHANGED FROM -12 TO -12
OFFSET CHANGED FROM -12 TO -6
OFFSET CHANGED FROM -6 TO -15
OFFSET CHANGED FROM -15 TO -12
OFFSET CHANGED FROM -12 TO -6
OFFSET CHANGED FROM -6 TO -9
OFFSET CHANGED FROM -9 TO -9
OFFSET CHANGED FROM -9 TO -12
OFFSET CHANGED FROM -12 TO -12
OFFSET CHANGED FROM -12 TO -3
OFFSET CHANGED FROM -3 TO -3
OFFSET CHANGED FROM -3 TO -6
OFFSET CHANGED FROM -6 TO -6
OFFSET CHANGED FROM -6 TO -6
OFFSET CHANGED FROM -6 TO -6
OFFSET CHANGED FROM -6 TO -3
OFFSET CHANGED FROM -3 TO -3
OFFSET CHANGED FROM -3 TO -6
OFFSET CHANGED FROM -6 TO -9
OFFSET CHANGED FROM -9 TO -18
OFFSET CHANGED FROM -18 TO -12
OFFSET CHANGED FROM -12 TO -12
OFFSET CHANGED FROM -12 TO -12
OFFSET CHANGED FROM -12 TO -12
Heartbeat CPU 0 instructions: 10000000 cycles: 3672602 heartbeat IPC: 2.72287 cumulative IPC: 2.72287 (Simulation time: 0 hr 0 min 27 sec) 
OFFSET CHANGED FROM -12 TO -3
OFFSET CHANGED FROM -3 TO -6
OFFSET CHANGED FROM -6 TO -3
OFFSET CHANGED FROM -3 TO -3
OFFSET CHANGED FROM -3 TO -6
OFFSET CHANGED FROM -6 TO -6
OFFSET CHANGED FROM -6 TO -3
OFFSET CHANGED FROM -3 TO -3
OFFSET CHANGED FROM -3 TO -15
OFFSET CHANGED FROM -15 TO -12
OFFSET CHANGED FROM -12 TO -12
OFFSET CHANGED FROM -12 TO -6
OFFSET CHANGED FROM -6 TO -6
OFFSET CHANGED FROM -6 TO -9
OFFSET CHANGED FROM -9 TO -12
OFFSET CHANGED FROM -12 TO -3
OFFSET CHANGED FROM -3 TO -3
OFFSET CHANGED FROM -3 TO -3
OFFSET CHANGED FROM -3 TO -3
OFFSET CHANGED FROM -3 TO -3
OFFSET CHANGED FROM -3 TO -3
OFFSET CHANGED FROM -3 TO -9
OFFSET CHANGED FROM -9 TO -6
OFFSET CHANGED FROM -6 TO -3
OFFSET CHANGED FROM -3 TO -3
OFFSET CHANGED FROM -3 TO -9
OFFSET CHANGED FROM -9 TO -3
OFFSET CHANGED FROM -3 TO -15
OFFSET CHANGED FROM -15 TO -9
OFFSET CHANGED FROM -9 TO -6
OFFSET CHANGED FROM -6 TO -3
OFFSET CHANGED FROM -3 TO -9
OFFSET CHANGED FROM -9 TO -9
OFFSET CHANGED FROM -9 TO -9
OFFSET CHANGED FROM -9 TO -12
OFFSET CHANGED FROM -12 TO -12
OFFSET CHANGED FROM -12 TO -6
OFFSET CHANGED FROM -6 TO -3
OFFSET CHANGED FROM -3 TO -3
OFFSET CHANGED FROM -3 TO -3
OFFSET CHANGED FROM -3 TO -3
OFFSET CHANGED FROM -3 TO -6
OFFSET CHANGED FROM -6 TO -3
OFFSET CHANGED FROM -3 TO -3
OFFSET CHANGED FROM -3 TO -3
OFFSET CHANGED FROM -3 TO -3
OFFSET CHANGED FROM -3 TO -12
OFFSET CHANGED FROM -12 TO -6
OFFSET CHANGED FROM -6 TO -12
OFFSET CHANGED FROM -12 TO -12
OFFSET CHANGED FROM -12 TO -6
OFFSET CHANGED FROM -6 TO -3
OFFSET CHANGED FROM -3 TO -12
OFFSET CHANGED FROM -12 TO -9
OFFSET CHANGED FROM -9 TO -6
OFFSET CHANGED FROM -6 TO -9
OFFSET CHANGED FROM -9 TO -9
OFFSET CHANGED FROM -9 TO -6
OFFSET CHANGED FROM -6 TO -3
OFFSET CHANGED FROM -3 TO -9
OFFSET CHANGED FROM -9 TO -9
OFFSET CHANGED FROM -9 TO -6
OFFSET CHANGED FROM -6 TO -12
OFFSET CHANGED FROM -12 TO -12
OFFSET CHANGED FROM -12 TO -6
OFFSET CHANGED FROM -6 TO -3
OFFSET CHANGED FROM -3 TO -12
OFFSET CHANGED FROM -12 TO -9
OFFSET CHANGED FROM -9 TO -3
OFFSET CHANGED FROM -3 TO -12
OFFSET CHANGED FROM -12 TO -3
OFFSET CHANGED FROM -3 TO -15
OFFSET CHANGED FROM -15 TO -15
OFFSET CHANGED FROM -15 TO -9
OFFSET CHANGED FROM -9 TO -3
OFFSET CHANGED FROM -3 TO -15
OFFSET CHANGED FROM -15 TO -12
OFFSET CHANGED FROM -12 TO -3
OFFSET CHANGED FROM -3 TO -3
OFFSET CHANGED FROM -3 TO -9
OFFSET CHANGED FROM -9 TO -6
OFFSET CHANGED FROM -6 TO -3
OFFSET CHANGED FROM -3 TO -9
OFFSET CHANGED FROM -9 TO -6
OFFSET CHANGED FROM -6 TO -3
OFFSET CHANGED FROM -3 TO -6
OFFSET CHANGED FROM -6 TO -3
OFFSET CHANGED FROM -3 TO -3
OFFSET CHANGED FROM -3 TO -12
OFFSET CHANGED FROM -12 TO -12
OFFSET CHANGED FROM -12 TO -6
OFFSET CHANGED FROM -6 TO -3
OFFSET CHANGED FROM -3 TO -3
OFFSET CHANGED FROM -3 TO -9
OFFSET CHANGED FROM -9 TO -6
OFFSET CHANGED FROM -6 TO -9
OFFSET CHANGED FROM -9 TO -12
OFFSET CHANGED FROM -12 TO -6
OFFSET CHANGED FROM -6 TO -3
OFFSET CHANGED FROM -3 TO -9
OFFSET CHANGED FROM -9 TO -9
OFFSET CHANGED FROM -9 TO -3
OFFSET CHANGED FROM -3 TO -15
OFFSET CHANGED FROM -15 TO -9
OFFSET CHANGED FROM -9 TO -3
OFFSET CHANGED FROM -3 TO -12
OFFSET CHANGED FROM -12 TO -6
OFFSET CHANGED FROM -6 TO -3
OFFSET CHANGED FROM -3 TO -12
OFFSET CHANGED FROM -12 TO -9
OFFSET CHANGED FROM -9 TO -6
OFFSET CHANGED FROM -6 TO -12
OFFSET CHANGED FROM -12 TO -9
OFFSET CHANGED FROM -9 TO -6
OFFSET CHANGED FROM -6 TO -3
OFFSET CHANGED FROM -3 TO -9
OFFSET CHANGED FROM -9 TO -12
OFFSET CHANGED FROM -12 TO -6
OFFSET CHANGED FROM -6 TO -15
OFFSET CHANGED FROM -15 TO -12
OFFSET CHANGED FROM -12 TO -6
OFFSET CHANGED FROM -6 TO -12
OFFSET CHANGED FROM -12 TO -9
OFFSET CHANGED FROM -9 TO -3
OFFSET CHANGED FROM -3 TO -3
OFFSET CHANGED FROM -3 TO -3
OFFSET CHANGED FROM -3 TO -3
OFFSET CHANGED FROM -3 TO -3
OFFSET CHANGED FROM -3 TO -9
OFFSET CHANGED FROM -9 TO -6
OFFSET CHANGED FROM -6 TO -3
OFFSET CHANGED FROM -3 TO -15
OFFSET CHANGED FROM -15 TO -9
OFFSET CHANGED FROM -9 TO -6
OFFSET CHANGED FROM -6 TO -6
OFFSET CHANGED FROM -6 TO -6
OFFSET CHANGED FROM -6 TO -12
OFFSET CHANGED FROM -12 TO -12
OFFSET CHANGED FROM -12 TO -3
OFFSET CHANGED FROM -3 TO -3
OFFSET CHANGED FROM -3 TO -6
OFFSET CHANGED FROM -6 TO -9
OFFSET CHANGED FROM -9 TO -6
OFFSET CHANGED FROM -6 TO -3
OFFSET CHANGED FROM -3 TO -6
OFFSET CHANGED FROM -6 TO -6
OFFSET CHANGED FROM -6 TO -3
OFFSET CHANGED FROM -3 TO -9
OFFSET CHANGED FROM -9 TO -3
OFFSET CHANGED FROM -3 TO -3
OFFSET CHANGED FROM -3 TO -9
OFFSET CHANGED FROM -9 TO -6
OFFSET CHANGED FROM -6 TO -3
OFFSET CHANGED FROM -3 TO -15
OFFSET CHANGED FROM -15 TO -12
OFFSET CHANGED FROM -12 TO -6
OFFSET CHANGED FROM -6 TO -12
OFFSET CHANGED FROM -12 TO -12
OFFSET CHANGED FROM -12 TO -6
OFFSET CHANGED FROM -6 TO -3
OFFSET CHANGED FROM -3 TO -9
OFFSET CHANGED FROM -9 TO -6
OFFSET CHANGED FROM -6 TO -6
OFFSET CHANGED FROM -6 TO -9
OFFSET CHANGED FROM -9 TO -9
OFFSET CHANGED FROM -9 TO -3
OFFSET CHANGED FROM -3 TO -3
OFFSET CHANGED FROM -3 TO -6
OFFSET CHANGED FROM -6 TO -3
OFFSET CHANGED FROM -3 TO -3
OFFSET CHANGED FROM -3 TO -3
OFFSET CHANGED FROM -3 TO -3
OFFSET CHANGED FROM -3 TO -3
OFFSET CHANGED FROM -3 TO -9
OFFSET CHANGED FROM -9 TO -9
OFFSET CHANGED FROM -9 TO -3
OFFSET CHANGED FROM -3 TO -3
OFFSET CHANGED FROM -3 TO -6
OFFSET CHANGED FROM -6 TO -3
OFFSET CHANGED FROM -3 TO -3
OFFSET CHANGED FROM -3 TO -9
OFFSET CHANGED FROM -9 TO -6
OFFSET CHANGED FROM -6 TO -3
OFFSET CHANGED FROM -3 TO -3
OFFSET CHANGED FROM -3 TO -9
OFFSET CHANGED FROM -9 TO -6
OFFSET CHANGED FROM -6 TO -12
OFFSET CHANGED FROM -12 TO -6
OFFSET CHANGED FROM -6 TO -3
OFFSET CHANGED FROM -3 TO -6
OFFSET CHANGED FROM -6 TO -6
OFFSET CHANGED FROM -6 TO -6
OFFSET CHANGED FROM -6 TO -6
OFFSET CHANGED FROM -6 TO -9
OFFSET CHANGED FROM -9 TO -3
OFFSET CHANGED FROM -3 TO -3
OFFSET CHANGED FROM -3 TO -3
OFFSET CHANGED FROM -3 TO -9
OFFSET CHANGED FROM -9 TO -9
OFFSET CHANGED FROM -9 TO -3
OFFSET CHANGED FROM -3 TO -15
OFFSET CHANGED FROM -15 TO -15
OFFSET CHANGED FROM -15 TO -6
OFFSET CHANGED FROM -6 TO -3
OFFSET CHANGED FROM -3 TO -9
OFFSET CHANGED FROM -9 TO -9
OFFSET CHANGED FROM -9 TO -3
OFFSET CHANGED FROM -3 TO -15
OFFSET CHANGED FROM -15 TO -15
OFFSET CHANGED FROM -15 TO -6
OFFSET CHANGED FROM -6 TO -3
OFFSET CHANGED FROM -3 TO -9
OFFSET CHANGED FROM -9 TO -6
OFFSET CHANGED FROM -6 TO -12
OFFSET CHANGED FROM -12 TO -9
OFFSET CHANGED FROM -9 TO -3
OFFSET CHANGED FROM -3 TO -12
OFFSET CHANGED FROM -12 TO -12
OFFSET CHANGED FROM -12 TO -6
OFFSET CHANGED FROM -6 TO -3
OFFSET CHANGED FROM -3 TO -3
OFFSET CHANGED FROM -3 TO -3
OFFSET CHANGED FROM -3 TO -3
OFFSET CHANGED FROM -3 TO -3
OFFSET CHANGED FROM -3 TO -12
OFFSET CHANGED FROM -12 TO -12
OFFSET CHANGED FROM -12 TO -6
OFFSET CHANGED FROM -6 TO -12
OFFSET CHANGED FROM -12 TO -12
OFFSET CHANGED FROM -12 TO -6
OFFSET CHANGED FROM -6 TO -12
OFFSET CHANGED FROM -12 TO -12
OFFSET CHANGED FROM -12 TO -9
OFFSET CHANGED FROM -9 TO -6
OFFSET CHANGED FROM -6 TO -12
OFFSET CHANGED FROM -12 TO -9
OFFSET CHANGED FROM -9 TO -15
OFFSET CHANGED FROM -15 TO -9
OFFSET CHANGED FROM -9 TO -3
OFFSET CHANGED FROM -3 TO -15
OFFSET CHANGED FROM -15 TO -12
OFFSET CHANGED FROM -12 TO -3
OFFSET CHANGED FROM -3 TO -9
OFFSET CHANGED FROM -9 TO -6
OFFSET CHANGED FROM -6 TO -3
OFFSET CHANGED FROM -3 TO -3
OFFSET CHANGED FROM -3 TO -3
OFFSET CHANGED FROM -3 TO -3
OFFSET CHANGED FROM -3 TO -3
OFFSET CHANGED FROM -3 TO -3
OFFSET CHANGED FROM -3 TO -9
OFFSET CHANGED FROM -9 TO -3
OFFSET CHANGED FROM -3 TO -3
OFFSET CHANGED FROM -3 TO -9
OFFSET CHANGED FROM -9 TO -9
OFFSET CHANGED FROM -9 TO -3
OFFSET CHANGED FROM -3 TO -12
OFFSET CHANGED FROM -12 TO -12
OFFSET CHANGED FROM -12 TO -6
OFFSET CHANGED FROM -6 TO -9
OFFSET CHANGED FROM -9 TO -9
OFFSET CHANGED FROM -9 TO -6
OFFSET CHANGED FROM -6 TO -6
OFFSET CHANGED FROM -6 TO -6
OFFSET CHANGED FROM -6 TO -6
OFFSET CHANGED FROM -6 TO -3
OFFSET CHANGED FROM -3 TO -3
OFFSET CHANGED FROM -3 TO -3
OFFSET CHANGED FROM -3 TO -3
OFFSET CHANGED FROM -3 TO -3
OFFSET CHANGED FROM -3 TO -3
OFFSET CHANGED FROM -3 TO -3
OFFSET CHANGED FROM -3 TO -3
OFFSET CHANGED FROM -3 TO -9
OFFSET CHANGED FROM -9 TO -9
OFFSET CHANGED FROM -9 TO -3
OFFSET CHANGED FROM -3 TO -3
OFFSET CHANGED FROM -3 TO -6
OFFSET CHANGED FROM -6 TO -3
OFFSET CHANGED FROM -3 TO -3
OFFSET CHANGED FROM -3 TO -9
OFFSET CHANGED FROM -9 TO -6
OFFSET CHANGED FROM -6 TO -3
OFFSET CHANGED FROM -3 TO -15
OFFSET CHANGED FROM -15 TO -12
OFFSET CHANGED FROM -12 TO -3
OFFSET CHANGED FROM -3 TO -3
OFFSET CHANGED FROM -3 TO -3
OFFSET CHANGED FROM -3 TO -12
OFFSET CHANGED FROM -12 TO -6
OFFSET CHANGED FROM -6 TO -3
OFFSET CHANGED FROM -3 TO -9
OFFSET CHANGED FROM -9 TO -3
OFFSET CHANGED FROM -3 TO -3
OFFSET CHANGED FROM -3 TO -3
OFFSET CHANGED FROM -3 TO -3
OFFSET CHANGED FROM -3 TO -6
OFFSET CHANGED FROM -6 TO -6
OFFSET CHANGED FROM -6 TO -6
OFFSET CHANGED FROM -6 TO -6
OFFSET CHANGED FROM -6 TO -3
OFFSET CHANGED FROM -3 TO -12
OFFSET CHANGED FROM -12 TO -12
OFFSET CHANGED FROM -12 TO -9
OFFSET CHANGED FROM -9 TO -3
OFFSET CHANGED FROM -3 TO -12
OFFSET CHANGED FROM -12 TO -12
OFFSET CHANGED FROM -12 TO -3
OFFSET CHANGED FROM -3 TO -3
OFFSET CHANGED FROM -3 TO -9
OFFSET CHANGED FROM -9 TO -6
OFFSET CHANGED FROM -6 TO -3
OFFSET CHANGED FROM -3 TO -3
OFFSET CHANGED FROM -3 TO -9
OFFSET CHANGED FROM -9 TO -3
OFFSET CHANGED FROM -3 TO -3
OFFSET CHANGED FROM -3 TO -9
OFFSET CHANGED FROM -9 TO -6
OFFSET CHANGED FROM -6 TO -6
OFFSET CHANGED FROM -6 TO -6
OFFSET CHANGED FROM -6 TO -6
OFFSET CHANGED FROM -6 TO -6
OFFSET CHANGED FROM -6 TO -12
OFFSET CHANGED FROM -12 TO -9
OFFSET CHANGED FROM -9 TO -3
OFFSET CHANGED FROM -3 TO -3
OFFSET CHANGED FROM -3 TO -9
OFFSET CHANGED FROM -9 TO -3
OFFSET CHANGED FROM -3 TO -12
OFFSET CHANGED FROM -12 TO -6
OFFSET CHANGED FROM -6 TO -3
OFFSET CHANGED FROM -3 TO -12
OFFSET CHANGED FROM -12 TO -12
OFFSET CHANGED FROM -12 TO -6
OFFSET CHANGED FROM -6 TO -12
OFFSET CHANGED FROM -12 TO -12
OFFSET CHANGED FROM -12 TO -9
OFFSET CHANGED FROM -9 TO -9
OFFSET CHANGED FROM -9 TO -6
OFFSET CHANGED FROM -6 TO -3
OFFSET CHANGED FROM -3 TO -3
OFFSET CHANGED FROM -3 TO -3
OFFSET CHANGED FROM -3 TO -3
OFFSET CHANGED FROM -3 TO -3
OFFSET CHANGED FROM -3 TO -3
OFFSET CHANGED FROM -3 TO -3
OFFSET CHANGED FROM -3 TO -12
OFFSET CHANGED FROM -12 TO -12
OFFSET CHANGED FROM -12 TO -12
OFFSET CHANGED FROM -12 TO -3
OFFSET CHANGED FROM -3 TO -9
OFFSET CHANGED FROM -9 TO -6
OFFSET CHANGED FROM -6 TO -3
OFFSET CHANGED FROM -3 TO -9
OFFSET CHANGED FROM -9 TO -9
OFFSET CHANGED FROM -9 TO -3
OFFSET CHANGED FROM -3 TO -15
OFFSET CHANGED FROM -15 TO -18
OFFSET CHANGED FROM -18 TO -12
OFFSET CHANGED FROM -12 TO -15
OFFSET CHANGED FROM -15 TO -12
OFFSET CHANGED FROM -12 TO -6
OFFSET CHANGED FROM -6 TO -3
OFFSET CHANGED FROM -3 TO -12
OFFSET CHANGED FROM -12 TO -9
OFFSET CHANGED FROM -9 TO -3
OFFSET CHANGED FROM -3 TO -3
OFFSET CHANGED FROM -3 TO -9
OFFSET CHANGED FROM -9 TO -6
OFFSET CHANGED FROM -6 TO -3
OFFSET CHANGED FROM -3 TO -9
OFFSET CHANGED FROM -9 TO -9
OFFSET CHANGED FROM -9 TO -3
OFFSET CHANGED FROM -3 TO -3
OFFSET CHANGED FROM -3 TO -3
OFFSET CHANGED FROM -3 TO -3
OFFSET CHANGED FROM -3 TO -3
OFFSET CHANGED FROM -3 TO -3
OFFSET CHANGED FROM -3 TO -3
OFFSET CHANGED FROM -3 TO -3
OFFSET CHANGED FROM -3 TO -9
OFFSET CHANGED FROM -9 TO -6
OFFSET CHANGED FROM -6 TO -3
OFFSET CHANGED FROM -3 TO -3
OFFSET CHANGED FROM -3 TO -9
OFFSET CHANGED FROM -9 TO -3
OFFSET CHANGED FROM -3 TO -3
OFFSET CHANGED FROM -3 TO -9
OFFSET CHANGED FROM -9 TO -12
OFFSET CHANGED FROM -12 TO -3
OFFSET CHANGED FROM -3 TO -3
OFFSET CHANGED FROM -3 TO -9
OFFSET CHANGED FROM -9 TO -6
OFFSET CHANGED FROM -6 TO -3
OFFSET CHANGED FROM -3 TO -9
OFFSET CHANGED FROM -9 TO -6
OFFSET CHANGED FROM -6 TO -12
OFFSET CHANGED FROM -12 TO -9
OFFSET CHANGED FROM -9 TO -9
OFFSET CHANGED FROM -9 TO -3
OFFSET CHANGED FROM -3 TO -3
OFFSET CHANGED FROM -3 TO -3
OFFSET CHANGED FROM -3 TO -3
OFFSET CHANGED FROM -3 TO -3
OFFSET CHANGED FROM -3 TO -3
OFFSET CHANGED FROM -3 TO -3
OFFSET CHANGED FROM -3 TO -3
OFFSET CHANGED FROM -3 TO -3
OFFSET CHANGED FROM -3 TO -3
OFFSET CHANGED FROM -3 TO -3
OFFSET CHANGED FROM -3 TO -12
OFFSET CHANGED FROM -12 TO -6
OFFSET CHANGED FROM -6 TO -12
OFFSET CHANGED FROM -12 TO -12
OFFSET CHANGED FROM -12 TO -12
OFFSET CHANGED FROM -12 TO -6
OFFSET CHANGED FROM -6 TO -12
OFFSET CHANGED FROM -12 TO -9
OFFSET CHANGED FROM -9 TO -6
OFFSET CHANGED FROM -6 TO -3
OFFSET CHANGED FROM -3 TO -9
OFFSET CHANGED FROM -9 TO -6
OFFSET CHANGED FROM -6 TO -3
OFFSET CHANGED FROM -3 TO -3
OFFSET CHANGED FROM -3 TO -9
OFFSET CHANGED FROM -9 TO -3
OFFSET CHANGED FROM -3 TO -3
OFFSET CHANGED FROM -3 TO -9
OFFSET CHANGED FROM -9 TO -6
OFFSET CHANGED FROM -6 TO -3
OFFSET CHANGED FROM -3 TO -3
OFFSET CHANGED FROM -3 TO -3
OFFSET CHANGED FROM -3 TO -3
OFFSET CHANGED FROM -3 TO -3
OFFSET CHANGED FROM -3 TO -3
OFFSET CHANGED FROM -3 TO -3
OFFSET CHANGED FROM -3 TO -3
OFFSET CHANGED FROM -3 TO -9
OFFSET CHANGED FROM -9 TO -6
OFFSET CHANGED FROM -6 TO -3
OFFSET CHANGED FROM -3 TO -3
OFFSET CHANGED FROM -3 TO -9
OFFSET CHANGED FROM -9 TO -9
OFFSET CHANGED FROM -9 TO -3
OFFSET CHANGED FROM -3 TO -3
OFFSET CHANGED FROM -3 TO -3
OFFSET CHANGED FROM -3 TO -6
OFFSET CHANGED FROM -6 TO -6
OFFSET CHANGED FROM -6 TO -3
OFFSET CHANGED FROM -3 TO -12
OFFSET CHANGED FROM -12 TO -12
OFFSET CHANGED FROM -12 TO -12
OFFSET CHANGED FROM -12 TO -12
OFFSET CHANGED FROM -12 TO -9
OFFSET CHANGED FROM -9 TO -3
OFFSET CHANGED FROM -3 TO -3
OFFSET CHANGED FROM -3 TO -9
OFFSET CHANGED FROM -9 TO -6
OFFSET CHANGED FROM -6 TO -3
OFFSET CHANGED FROM -3 TO -9
OFFSET CHANGED FROM -9 TO -6
OFFSET CHANGED FROM -6 TO -3
OFFSET CHANGED FROM -3 TO -3
OFFSET CHANGED FROM -3 TO -3
OFFSET CHANGED FROM -3 TO -6
OFFSET CHANGED FROM -6 TO -3
OFFSET CHANGED FROM -3 TO -9
OFFSET CHANGED FROM -9 TO -9
OFFSET CHANGED FROM -9 TO -6
OFFSET CHANGED FROM -6 TO -3
OFFSET CHANGED FROM -3 TO -9
OFFSET CHANGED FROM -9 TO -12
OFFSET CHANGED FROM -12 TO -3
OFFSET CHANGED FROM -3 TO -12
OFFSET CHANGED FROM -12 TO -15
OFFSET CHANGED FROM -15 TO -9
OFFSET CHANGED FROM -9 TO -6
OFFSET CHANGED FROM -6 TO -3
OFFSET CHANGED FROM -3 TO -6
OFFSET CHANGED FROM -6 TO -12
OFFSET CHANGED FROM -12 TO -3
OFFSET CHANGED FROM -3 TO -3
OFFSET CHANGED FROM -3 TO -9
OFFSET CHANGED FROM -9 TO -6
OFFSET CHANGED FROM -6 TO -3
OFFSET CHANGED FROM -3 TO -15
OFFSET CHANGED FROM -15 TO -9
OFFSET CHANGED FROM -9 TO -3
OFFSET CHANGED FROM -3 TO -3
OFFSET CHANGED FROM -3 TO -9
OFFSET CHANGED FROM -9 TO -6
OFFSET CHANGED FROM -6 TO -3
OFFSET CHANGED FROM -3 TO -6
OFFSET CHANGED FROM -6 TO -6
OFFSET CHANGED FROM -6 TO -9
OFFSET CHANGED FROM -9 TO -6
OFFSET CHANGED FROM -6 TO -9
OFFSET CHANGED FROM -9 TO -3
OFFSET CHANGED FROM -3 TO -3
OFFSET CHANGED FROM -3 TO -3
OFFSET CHANGED FROM -3 TO -6
OFFSET CHANGED FROM -6 TO -9
OFFSET CHANGED FROM -9 TO -12
OFFSET CHANGED FROM -12 TO -6
OFFSET CHANGED FROM -6 TO -3
OFFSET CHANGED FROM -3 TO -6
OFFSET CHANGED FROM -6 TO -12
OFFSET CHANGED FROM -12 TO -12
OFFSET CHANGED FROM -12 TO -6
OFFSET CHANGED FROM -6 TO -3
OFFSET CHANGED FROM -3 TO -12
OFFSET CHANGED FROM -12 TO -12
OFFSET CHANGED FROM -12 TO -6
OFFSET CHANGED FROM -6 TO -3
OFFSET CHANGED FROM -3 TO -3
OFFSET CHANGED FROM -3 TO -9
OFFSET CHANGED FROM -9 TO -9
OFFSET CHANGED FROM -9 TO -3
OFFSET CHANGED FROM -3 TO -3
OFFSET CHANGED FROM -3 TO -9
OFFSET CHANGED FROM -9 TO -6
OFFSET CHANGED FROM -6 TO -3
OFFSET CHANGED FROM -3 TO -6
OFFSET CHANGED FROM -6 TO -15
OFFSET CHANGED FROM -15 TO -18
OFFSET CHANGED FROM -18 TO -9
OFFSET CHANGED FROM -9 TO -15
OFFSET CHANGED FROM -15 TO -15
OFFSET CHANGED FROM -15 TO -15
OFFSET CHANGED FROM -15 TO -15
OFFSET CHANGED FROM -15 TO -9
OFFSET CHANGED FROM -9 TO -3
OFFSET CHANGED FROM -3 TO -15
OFFSET CHANGED FROM -15 TO -12
OFFSET CHANGED FROM -12 TO -3
OFFSET CHANGED FROM -3 TO -15
OFFSET CHANGED FROM -15 TO -15
OFFSET CHANGED FROM -15 TO -6
OFFSET CHANGED FROM -6 TO -3
OFFSET CHANGED FROM -3 TO -15
OFFSET CHANGED FROM -15 TO -9
OFFSET CHANGED FROM -9 TO -3
OFFSET CHANGED FROM -3 TO -9
OFFSET CHANGED FROM -9 TO -9
OFFSET CHANGED FROM -9 TO -3
OFFSET CHANGED FROM -3 TO -3
OFFSET CHANGED FROM -3 TO -12
OFFSET CHANGED FROM -12 TO -9
OFFSET CHANGED FROM -9 TO -12
OFFSET CHANGED FROM -12 TO -15
OFFSET CHANGED FROM -15 TO -3
OFFSET CHANGED FROM -3 TO -3
OFFSET CHANGED FROM -3 TO -3
OFFSET CHANGED FROM -3 TO -6
OFFSET CHANGED FROM -6 TO -3
OFFSET CHANGED FROM -3 TO -6
OFFSET CHANGED FROM -6 TO -9
OFFSET CHANGED FROM -9 TO -3
OFFSET CHANGED FROM -3 TO -12
OFFSET CHANGED FROM -12 TO -12
OFFSET CHANGED FROM -12 TO -6
OFFSET CHANGED FROM -6 TO -12
OFFSET CHANGED FROM -12 TO -12
OFFSET CHANGED FROM -12 TO -6
OFFSET CHANGED FROM -6 TO -12
OFFSET CHANGED FROM -12 TO -6
OFFSET CHANGED FROM -6 TO -15
OFFSET CHANGED FROM -15 TO -12
OFFSET CHANGED FROM -12 TO -6
OFFSET CHANGED FROM -6 TO -12
OFFSET CHANGED FROM -12 TO -12
OFFSET CHANGED FROM -12 TO -12
OFFSET CHANGED FROM -12 TO -3
OFFSET CHANGED FROM -3 TO -3
OFFSET CHANGED FROM -3 TO -3
OFFSET CHANGED FROM -3 TO -3
OFFSET CHANGED FROM -3 TO -3
OFFSET CHANGED FROM -3 TO -3
OFFSET CHANGED FROM -3 TO -12
OFFSET CHANGED FROM -12 TO -9
OFFSET CHANGED FROM -9 TO -3
OFFSET CHANGED FROM -3 TO -3
OFFSET CHANGED FROM -3 TO -3
OFFSET CHANGED FROM -3 TO -3
OFFSET CHANGED FROM -3 TO -3
OFFSET CHANGED FROM -3 TO -3
OFFSET CHANGED FROM -3 TO -3
OFFSET CHANGED FROM -3 TO -3
OFFSET CHANGED FROM -3 TO -9
OFFSET CHANGED FROM -9 TO -9
OFFSET CHANGED FROM -9 TO -3
OFFSET CHANGED FROM -3 TO -15
OFFSET CHANGED FROM -15 TO -9
OFFSET CHANGED FROM -9 TO -9
OFFSET CHANGED FROM -9 TO -9
OFFSET CHANGED FROM -9 TO -15
OFFSET CHANGED FROM -15 TO -12
OFFSET CHANGED FROM -12 TO -6
OFFSET CHANGED FROM -6 TO -12
OFFSET CHANGED FROM -12 TO -12
OFFSET CHANGED FROM -12 TO -6
OFFSET CHANGED FROM -6 TO -6
OFFSET CHANGED FROM -6 TO -12
OFFSET CHANGED FROM -12 TO -6
OFFSET CHANGED FROM -6 TO -12
OFFSET CHANGED FROM -12 TO -12
OFFSET CHANGED FROM -12 TO -15
OFFSET CHANGED FROM -15 TO -12
OFFSET CHANGED FROM -12 TO -6
OFFSET CHANGED FROM -6 TO -3
OFFSET CHANGED FROM -3 TO -3
OFFSET CHANGED FROM -3 TO -3
OFFSET CHANGED FROM -3 TO -3
OFFSET CHANGED FROM -3 TO -3
OFFSET CHANGED FROM -3 TO -9
OFFSET CHANGED FROM -9 TO -6
OFFSET CHANGED FROM -6 TO -3
OFFSET CHANGED FROM -3 TO -12
OFFSET CHANGED FROM -12 TO -9
OFFSET CHANGED FROM -9 TO -3
OFFSET CHANGED FROM -3 TO -3
OFFSET CHANGED FROM -3 TO -12
OFFSET CHANGED FROM -12 TO -3
OFFSET CHANGED FROM -3 TO -3
OFFSET CHANGED FROM -3 TO -6
OFFSET CHANGED FROM -6 TO -6
OFFSET CHANGED FROM -6 TO -3
OFFSET CHANGED FROM -3 TO -3
OFFSET CHANGED FROM -3 TO -6
OFFSET CHANGED FROM -6 TO -6
OFFSET CHANGED FROM -6 TO -12
OFFSET CHANGED FROM -12 TO -9
OFFSET CHANGED FROM -9 TO -3
OFFSET CHANGED FROM -3 TO -3
OFFSET CHANGED FROM -3 TO -6
OFFSET CHANGED FROM -6 TO -3
OFFSET CHANGED FROM -3 TO -3
OFFSET CHANGED FROM -3 TO -9
OFFSET CHANGED FROM -9 TO -9
OFFSET CHANGED FROM -9 TO -3
OFFSET CHANGED FROM -3 TO -15
OFFSET CHANGED FROM -15 TO -9
OFFSET CHANGED FROM -9 TO -9
OFFSET CHANGED FROM -9 TO -3
OFFSET CHANGED FROM -3 TO -9
OFFSET CHANGED FROM -9 TO -6
OFFSET CHANGED FROM -6 TO -15
OFFSET CHANGED FROM -15 TO -12
OFFSET CHANGED FROM -12 TO -15
OFFSET CHANGED FROM -15 TO -9
OFFSET CHANGED FROM -9 TO -6
OFFSET CHANGED FROM -6 TO -6
OFFSET CHANGED FROM -6 TO -3
OFFSET CHANGED FROM -3 TO -6
OFFSET CHANGED FROM -6 TO -6
OFFSET CHANGED FROM -6 TO -3
OFFSET CHANGED FROM -3 TO -9
OFFSET CHANGED FROM -9 TO -3
OFFSET CHANGED FROM -3 TO -3
OFFSET CHANGED FROM -3 TO -3
OFFSET CHANGED FROM -3 TO -3
OFFSET CHANGED FROM -3 TO -3
OFFSET CHANGED FROM -3 TO -3
OFFSET CHANGED FROM -3 TO -3
OFFSET CHANGED FROM -3 TO -6
OFFSET CHANGED FROM -6 TO -6
OFFSET CHANGED FROM -6 TO -3
OFFSET CHANGED FROM -3 TO -3
OFFSET CHANGED FROM -3 TO -3
OFFSET CHANGED FROM -3 TO -3
OFFSET CHANGED FROM -3 TO -6
OFFSET CHANGED FROM -6 TO -3
OFFSET CHANGED FROM -3 TO -3
OFFSET CHANGED FROM -3 TO -12
OFFSET CHANGED FROM -12 TO -3
OFFSET CHANGED FROM -3 TO -9
OFFSET CHANGED FROM -9 TO -3
OFFSET CHANGED FROM -3 TO -12
OFFSET CHANGED FROM -12 TO -9
OFFSET CHANGED FROM -9 TO -6
OFFSET CHANGED FROM -6 TO -9
OFFSET CHANGED FROM -9 TO -15
OFFSET CHANGED FROM -15 TO -9
OFFSET CHANGED FROM -9 TO -6
OFFSET CHANGED FROM -6 TO -12
OFFSET CHANGED FROM -12 TO -12
OFFSET CHANGED FROM -12 TO -6
OFFSET CHANGED FROM -6 TO -12
OFFSET CHANGED FROM -12 TO -12
OFFSET CHANGED FROM -12 TO -6
OFFSET CHANGED FROM -6 TO -12
OFFSET CHANGED FROM -12 TO -12
OFFSET CHANGED FROM -12 TO -6
OFFSET CHANGED FROM -6 TO -6
OFFSET CHANGED FROM -6 TO -15
OFFSET CHANGED FROM -15 TO -12
OFFSET CHANGED FROM -12 TO -3
Heartbeat CPU 0 instructions: 20000002 cycles: 8677239 heartbeat IPC: 1.99815 cumulative IPC: 2.30488 (Simulation time: 0 hr 1 min 0 sec) 
OFFSET CHANGED FROM -3 TO -3
OFFSET CHANGED FROM -3 TO -9
OFFSET CHANGED FROM -9 TO -3
OFFSET CHANGED FROM -3 TO -9
OFFSET CHANGED FROM -9 TO -9
OFFSET CHANGED FROM -9 TO -6
OFFSET CHANGED FROM -6 TO -9
OFFSET CHANGED FROM -9 TO -12
OFFSET CHANGED FROM -12 TO -6
OFFSET CHANGED FROM -6 TO -15
OFFSET CHANGED FROM -15 TO -15
OFFSET CHANGED FROM -15 TO -3
OFFSET CHANGED FROM -3 TO -3
OFFSET CHANGED FROM -3 TO -9
OFFSET CHANGED FROM -9 TO -3
OFFSET CHANGED FROM -3 TO -3
OFFSET CHANGED FROM -3 TO -3
OFFSET CHANGED FROM -3 TO -6
OFFSET CHANGED FROM -6 TO -3
OFFSET CHANGED FROM -3 TO -12
OFFSET CHANGED FROM -12 TO -12
OFFSET CHANGED FROM -12 TO -6
OFFSET CHANGED FROM -6 TO -12
OFFSET CHANGED FROM -12 TO -12
OFFSET CHANGED FROM -12 TO -6
OFFSET CHANGED FROM -6 TO -3
OFFSET CHANGED FROM -3 TO -9
OFFSET CHANGED FROM -9 TO -6
OFFSET CHANGED FROM -6 TO -3
OFFSET CHANGED FROM -3 TO -9
OFFSET CHANGED FROM -9 TO -9
OFFSET CHANGED FROM -9 TO -3
OFFSET CHANGED FROM -3 TO -6
OFFSET CHANGED FROM -6 TO -6
OFFSET CHANGED FROM -6 TO -3
OFFSET CHANGED FROM -3 TO -3
OFFSET CHANGED FROM -3 TO -3
OFFSET CHANGED FROM -3 TO -3
OFFSET CHANGED FROM -3 TO -3
OFFSET CHANGED FROM -3 TO -3
OFFSET CHANGED FROM -3 TO -3
OFFSET CHANGED FROM -3 TO -3
OFFSET CHANGED FROM -3 TO -3
OFFSET CHANGED FROM -3 TO -9
OFFSET CHANGED FROM -9 TO -3
OFFSET CHANGED FROM -3 TO -3
OFFSET CHANGED FROM -3 TO -9
OFFSET CHANGED FROM -9 TO -6
OFFSET CHANGED FROM -6 TO -3
OFFSET CHANGED FROM -3 TO -9
OFFSET CHANGED FROM -9 TO -3
OFFSET CHANGED FROM -3 TO -6
OFFSET CHANGED FROM -6 TO -3
OFFSET CHANGED FROM -3 TO -3
OFFSET CHANGED FROM -3 TO -2
OFFSET CHANGED FROM -2 TO -3
OFFSET CHANGED FROM -3 TO -3
OFFSET CHANGED FROM -3 TO -6
OFFSET CHANGED FROM -6 TO -3
OFFSET CHANGED FROM -3 TO -6
OFFSET CHANGED FROM -6 TO -3
OFFSET CHANGED FROM -3 TO -6
OFFSET CHANGED FROM -6 TO -6
OFFSET CHANGED FROM -6 TO -6
OFFSET CHANGED FROM -6 TO -18
OFFSET CHANGED FROM -18 TO -12
OFFSET CHANGED FROM -12 TO -9
OFFSET CHANGED FROM -9 TO -9
OFFSET CHANGED FROM -9 TO -6
OFFSET CHANGED FROM -6 TO -6
OFFSET CHANGED FROM -6 TO -3
OFFSET CHANGED FROM -3 TO -3
OFFSET CHANGED FROM -3 TO -3
OFFSET CHANGED FROM -3 TO -3
OFFSET CHANGED FROM -3 TO -3
OFFSET CHANGED FROM -3 TO -3
OFFSET CHANGED FROM -3 TO -12
OFFSET CHANGED FROM -12 TO -12
OFFSET CHANGED FROM -12 TO -12
OFFSET CHANGED FROM -12 TO -3
OFFSET CHANGED FROM -3 TO -12
OFFSET CHANGED FROM -12 TO -3
OFFSET CHANGED FROM -3 TO -3
OFFSET CHANGED FROM -3 TO -6
OFFSET CHANGED FROM -6 TO -3
OFFSET CHANGED FROM -3 TO -3
OFFSET CHANGED FROM -3 TO -6
OFFSET CHANGED FROM -6 TO -6
OFFSET CHANGED FROM -6 TO -6
OFFSET CHANGED FROM -6 TO -6
OFFSET CHANGED FROM -6 TO -12
OFFSET CHANGED FROM -12 TO -12
OFFSET CHANGED FROM -12 TO -9
OFFSET CHANGED FROM -9 TO -6
OFFSET CHANGED FROM -6 TO -12
OFFSET CHANGED FROM -12 TO -12
OFFSET CHANGED FROM -12 TO -6
OFFSET CHANGED FROM -6 TO -12
OFFSET CHANGED FROM -12 TO -12
OFFSET CHANGED FROM -12 TO -6
OFFSET CHANGED FROM -6 TO -3
OFFSET CHANGED FROM -3 TO -3
OFFSET CHANGED FROM -3 TO -9
OFFSET CHANGED FROM -9 TO -6
OFFSET CHANGED FROM -6 TO -12
OFFSET CHANGED FROM -12 TO -9
OFFSET CHANGED FROM -9 TO -3
OFFSET CHANGED FROM -3 TO -3
OFFSET CHANGED FROM -3 TO -3
OFFSET CHANGED FROM -3 TO -9
OFFSET CHANGED FROM -9 TO -3
OFFSET CHANGED FROM -3 TO -12
OFFSET CHANGED FROM -12 TO -12
OFFSET CHANGED FROM -12 TO -6
OFFSET CHANGED FROM -6 TO -3
OFFSET CHANGED FROM -3 TO -3
OFFSET CHANGED FROM -3 TO -12
OFFSET CHANGED FROM -12 TO -6
OFFSET CHANGED FROM -6 TO -3
OFFSET CHANGED FROM -3 TO -12
OFFSET CHANGED FROM -12 TO -12
OFFSET CHANGED FROM -12 TO -6
OFFSET CHANGED FROM -6 TO -3
OFFSET CHANGED FROM -3 TO -9
OFFSET CHANGED FROM -9 TO -6
OFFSET CHANGED FROM -6 TO -3
OFFSET CHANGED FROM -3 TO -9
OFFSET CHANGED FROM -9 TO -9
OFFSET CHANGED FROM -9 TO -3
OFFSET CHANGED FROM -3 TO -3
OFFSET CHANGED FROM -3 TO -9
OFFSET CHANGED FROM -9 TO -6
OFFSET CHANGED FROM -6 TO -12
OFFSET CHANGED FROM -12 TO -12
OFFSET CHANGED FROM -12 TO -6
OFFSET CHANGED FROM -6 TO -6
OFFSET CHANGED FROM -6 TO -6
OFFSET CHANGED FROM -6 TO -6
OFFSET CHANGED FROM -6 TO -6
OFFSET CHANGED FROM -6 TO -12
OFFSET CHANGED FROM -12 TO -6
OFFSET CHANGED FROM -6 TO -3
OFFSET CHANGED FROM -3 TO -3
OFFSET CHANGED FROM -3 TO -6
OFFSET CHANGED FROM -6 TO -3
OFFSET CHANGED FROM -3 TO -12
OFFSET CHANGED FROM -12 TO -6
OFFSET CHANGED FROM -6 TO -12
OFFSET CHANGED FROM -12 TO -12
OFFSET CHANGED FROM -12 TO -6
OFFSET CHANGED FROM -6 TO -6
OFFSET CHANGED FROM -6 TO -6
OFFSET CHANGED FROM -6 TO -3
OFFSET CHANGED FROM -3 TO -3
OFFSET CHANGED FROM -3 TO -3
OFFSET CHANGED FROM -3 TO -3
OFFSET CHANGED FROM -3 TO -3
OFFSET CHANGED FROM -3 TO -3
OFFSET CHANGED FROM -3 TO -12
OFFSET CHANGED FROM -12 TO -15
OFFSET CHANGED FROM -15 TO -15
OFFSET CHANGED FROM -15 TO -3
OFFSET CHANGED FROM -3 TO -9
OFFSET CHANGED FROM -9 TO -9
OFFSET CHANGED FROM -9 TO -3
OFFSET CHANGED FROM -3 TO -9
OFFSET CHANGED FROM -9 TO -9
OFFSET CHANGED FROM -9 TO -3
OFFSET CHANGED FROM -3 TO -3
OFFSET CHANGED FROM -3 TO -3
OFFSET CHANGED FROM -3 TO -6
OFFSET CHANGED FROM -6 TO -3
OFFSET CHANGED FROM -3 TO -6
OFFSET CHANGED FROM -6 TO -6
OFFSET CHANGED FROM -6 TO -3
OFFSET CHANGED FROM -3 TO -3
OFFSET CHANGED FROM -3 TO -6
OFFSET CHANGED FROM -6 TO -6
OFFSET CHANGED FROM -6 TO -6
OFFSET CHANGED FROM -6 TO -6
OFFSET CHANGED FROM -6 TO -3
OFFSET CHANGED FROM -3 TO -3
OFFSET CHANGED FROM -3 TO -6
OFFSET CHANGED FROM -6 TO -6
OFFSET CHANGED FROM -6 TO -6
OFFSET CHANGED FROM -6 TO -9
OFFSET CHANGED FROM -9 TO -12
OFFSET CHANGED FROM -12 TO -12
OFFSET CHANGED FROM -12 TO -6
OFFSET CHANGED FROM -6 TO -12
OFFSET CHANGED FROM -12 TO -15
OFFSET CHANGED FROM -15 TO -9
OFFSET CHANGED FROM -9 TO -3
OFFSET CHANGED FROM -3 TO -9
OFFSET CHANGED FROM -9 TO -9
OFFSET CHANGED FROM -9 TO -6
OFFSET CHANGED FROM -6 TO -3
OFFSET CHANGED FROM -3 TO -9
OFFSET CHANGED FROM -9 TO -6
OFFSET CHANGED FROM -6 TO -3
OFFSET CHANGED FROM -3 TO -3
OFFSET CHANGED FROM -3 TO -3
OFFSET CHANGED FROM -3 TO -3
OFFSET CHANGED FROM -3 TO -3
OFFSET CHANGED FROM -3 TO -3
OFFSET CHANGED FROM -3 TO -12
OFFSET CHANGED FROM -12 TO -12
OFFSET CHANGED FROM -12 TO -9
OFFSET CHANGED FROM -9 TO -3
OFFSET CHANGED FROM -3 TO -3
OFFSET CHANGED FROM -3 TO -3
OFFSET CHANGED FROM -3 TO -9
OFFSET CHANGED FROM -9 TO -3
OFFSET CHANGED FROM -3 TO -3
OFFSET CHANGED FROM -3 TO -3
OFFSET CHANGED FROM -3 TO -9
OFFSET CHANGED FROM -9 TO -9
OFFSET CHANGED FROM -9 TO -6
OFFSET CHANGED FROM -6 TO -3
OFFSET CHANGED FROM -3 TO -9
OFFSET CHANGED FROM -9 TO -9
OFFSET CHANGED FROM -9 TO -3
OFFSET CHANGED FROM -3 TO -15
OFFSET CHANGED FROM -15 TO -9
OFFSET CHANGED FROM -9 TO -3
OFFSET CHANGED FROM -3 TO -3
OFFSET CHANGED FROM -3 TO -3
OFFSET CHANGED FROM -3 TO -3
OFFSET CHANGED FROM -3 TO -3
OFFSET CHANGED FROM -3 TO -3
OFFSET CHANGED FROM -3 TO -9
OFFSET CHANGED FROM -9 TO -3
OFFSET CHANGED FROM -3 TO -3
OFFSET CHANGED FROM -3 TO -3
OFFSET CHANGED FROM -3 TO -3
OFFSET CHANGED FROM -3 TO -9
OFFSET CHANGED FROM -9 TO -6
OFFSET CHANGED FROM -6 TO -6
OFFSET CHANGED FROM -6 TO -12
OFFSET CHANGED FROM -12 TO -12
OFFSET CHANGED FROM -12 TO -9
OFFSET CHANGED FROM -9 TO -6
OFFSET CHANGED FROM -6 TO -15
OFFSET CHANGED FROM -15 TO -15
OFFSET CHANGED FROM -15 TO -6
OFFSET CHANGED FROM -6 TO -3
OFFSET CHANGED FROM -3 TO -9
OFFSET CHANGED FROM -9 TO -9
OFFSET CHANGED FROM -9 TO -3
OFFSET CHANGED FROM -3 TO -15
OFFSET CHANGED FROM -15 TO -15
OFFSET CHANGED FROM -15 TO -6
OFFSET CHANGED FROM -6 TO -6
OFFSET CHANGED FROM -6 TO -9
OFFSET CHANGED FROM -9 TO -3
OFFSET CHANGED FROM -3 TO -3
OFFSET CHANGED FROM -3 TO -3
OFFSET CHANGED FROM -3 TO -3
OFFSET CHANGED FROM -3 TO -3
OFFSET CHANGED FROM -3 TO -9
OFFSET CHANGED FROM -9 TO -3
OFFSET CHANGED FROM -3 TO -9
OFFSET CHANGED FROM -9 TO -9
OFFSET CHANGED FROM -9 TO -3
OFFSET CHANGED FROM -3 TO -6
OFFSET CHANGED FROM -6 TO -3
OFFSET CHANGED FROM -3 TO -3
OFFSET CHANGED FROM -3 TO -3
OFFSET CHANGED FROM -3 TO -9
OFFSET CHANGED FROM -9 TO -9
OFFSET CHANGED FROM -9 TO -3
OFFSET CHANGED FROM -3 TO -3
OFFSET CHANGED FROM -3 TO -9
OFFSET CHANGED FROM -9 TO -6
OFFSET CHANGED FROM -6 TO -3
OFFSET CHANGED FROM -3 TO -3
OFFSET CHANGED FROM -3 TO -3
OFFSET CHANGED FROM -3 TO -9
OFFSET CHANGED FROM -9 TO -6
OFFSET CHANGED FROM -6 TO -6
OFFSET CHANGED FROM -6 TO -6
OFFSET CHANGED FROM -6 TO -6
OFFSET CHANGED FROM -6 TO -3
OFFSET CHANGED FROM -3 TO -6
OFFSET CHANGED FROM -6 TO -9
OFFSET CHANGED FROM -9 TO -9
OFFSET CHANGED FROM -9 TO -3
OFFSET CHANGED FROM -3 TO -3
OFFSET CHANGED FROM -3 TO -9
OFFSET CHANGED FROM -9 TO -9
OFFSET CHANGED FROM -9 TO -6
OFFSET CHANGED FROM -6 TO -3
OFFSET CHANGED FROM -3 TO -3
OFFSET CHANGED FROM -3 TO -12
OFFSET CHANGED FROM -12 TO -3
OFFSET CHANGED FROM -3 TO -3
OFFSET CHANGED FROM -3 TO -3
OFFSET CHANGED FROM -3 TO -9
OFFSET CHANGED FROM -9 TO -3
OFFSET CHANGED FROM -3 TO -3
OFFSET CHANGED FROM -3 TO -3
OFFSET CHANGED FROM -3 TO -3
OFFSET CHANGED FROM -3 TO -3
OFFSET CHANGED FROM -3 TO -3
OFFSET CHANGED FROM -3 TO -3
OFFSET CHANGED FROM -3 TO -3
OFFSET CHANGED FROM -3 TO -3
OFFSET CHANGED FROM -3 TO -3
OFFSET CHANGED FROM -3 TO -3
OFFSET CHANGED FROM -3 TO -3
OFFSET CHANGED FROM -3 TO -3
OFFSET CHANGED FROM -3 TO -12
OFFSET CHANGED FROM -12 TO -6
OFFSET CHANGED FROM -6 TO -3
OFFSET CHANGED FROM -3 TO -12
OFFSET CHANGED FROM -12 TO -12
OFFSET CHANGED FROM -12 TO -6
OFFSET CHANGED FROM -6 TO -3
OFFSET CHANGED FROM -3 TO -3
OFFSET CHANGED FROM -3 TO -9
OFFSET CHANGED FROM -9 TO -9
OFFSET CHANGED FROM -9 TO -3
OFFSET CHANGED FROM -3 TO -15
OFFSET CHANGED FROM -15 TO -9
OFFSET CHANGED FROM -9 TO -6
OFFSET CHANGED FROM -6 TO -3
OFFSET CHANGED FROM -3 TO -9
OFFSET CHANGED FROM -9 TO -9
OFFSET CHANGED FROM -9 TO -3
OFFSET CHANGED FROM -3 TO -12
OFFSET CHANGED FROM -12 TO -12
OFFSET CHANGED FROM -12 TO -6
OFFSET CHANGED FROM -6 TO -9
OFFSET CHANGED FROM -9 TO -9
OFFSET CHANGED FROM -9 TO -6
OFFSET CHANGED FROM -6 TO -3
OFFSET CHANGED FROM -3 TO -6
OFFSET CHANGED FROM -6 TO -6
OFFSET CHANGED FROM -6 TO -3
OFFSET CHANGED FROM -3 TO -3
OFFSET CHANGED FROM -3 TO -3
OFFSET CHANGED FROM -3 TO -3
OFFSET CHANGED FROM -3 TO -3
OFFSET CHANGED FROM -3 TO -3
OFFSET CHANGED FROM -3 TO -3
OFFSET CHANGED FROM -3 TO -3
OFFSET CHANGED FROM -3 TO -9
OFFSET CHANGED FROM -9 TO -9
OFFSET CHANGED FROM -9 TO -3
OFFSET CHANGED FROM -3 TO -3
OFFSET CHANGED FROM -3 TO -9
OFFSET CHANGED FROM -9 TO -3
OFFSET CHANGED FROM -3 TO -3
OFFSET CHANGED FROM -3 TO -9
OFFSET CHANGED FROM -9 TO -6
OFFSET CHANGED FROM -6 TO -3
OFFSET CHANGED FROM -3 TO -15
OFFSET CHANGED FROM -15 TO -12
OFFSET CHANGED FROM -12 TO -3
OFFSET CHANGED FROM -3 TO -3
OFFSET CHANGED FROM -3 TO -9
OFFSET CHANGED FROM -9 TO -9
OFFSET CHANGED FROM -9 TO -3
OFFSET CHANGED FROM -3 TO -3
OFFSET CHANGED FROM -3 TO -12
OFFSET CHANGED FROM -12 TO -12
OFFSET CHANGED FROM -12 TO -12
OFFSET CHANGED FROM -12 TO -3
OFFSET CHANGED FROM -3 TO -3
OFFSET CHANGED FROM -3 TO -6
OFFSET CHANGED FROM -6 TO -3
OFFSET CHANGED FROM -3 TO -3
OFFSET CHANGED FROM -3 TO -3
OFFSET CHANGED FROM -3 TO -6
OFFSET CHANGED FROM -6 TO -6
OFFSET CHANGED FROM -6 TO -6
OFFSET CHANGED FROM -6 TO -12
OFFSET CHANGED FROM -12 TO -6
OFFSET CHANGED FROM -6 TO -12
OFFSET CHANGED FROM -12 TO -18
OFFSET CHANGED FROM -18 TO -3
OFFSET CHANGED FROM -3 TO -3
OFFSET CHANGED FROM -3 TO -3
OFFSET CHANGED FROM -3 TO -3
OFFSET CHANGED FROM -3 TO -9
OFFSET CHANGED FROM -9 TO -3
OFFSET CHANGED FROM -3 TO -15
OFFSET CHANGED FROM -15 TO -12
OFFSET CHANGED FROM -12 TO -9
OFFSET CHANGED FROM -9 TO -12
OFFSET CHANGED FROM -12 TO -6
OFFSET CHANGED FROM -6 TO -3
OFFSET CHANGED FROM -3 TO -6
OFFSET CHANGED FROM -6 TO -6
OFFSET CHANGED FROM -6 TO -6
OFFSET CHANGED FROM -6 TO -3
OFFSET CHANGED FROM -3 TO -6
OFFSET CHANGED FROM -6 TO -6
OFFSET CHANGED FROM -6 TO -3
OFFSET CHANGED FROM -3 TO -3
OFFSET CHANGED FROM -3 TO -3
OFFSET CHANGED FROM -3 TO -3
OFFSET CHANGED FROM -3 TO -3
OFFSET CHANGED FROM -3 TO -12
OFFSET CHANGED FROM -12 TO -9
OFFSET CHANGED FROM -9 TO -3
OFFSET CHANGED FROM -3 TO -12
OFFSET CHANGED FROM -12 TO -6
OFFSET CHANGED FROM -6 TO -3
OFFSET CHANGED FROM -3 TO -3
OFFSET CHANGED FROM -3 TO -6
OFFSET CHANGED FROM -6 TO -15
OFFSET CHANGED FROM -15 TO -6
Heartbeat CPU 0 instructions: 30000000 cycles: 13071147 heartbeat IPC: 2.27588 cumulative IPC: 2.29513 (Simulation time: 0 hr 1 min 30 sec) 
OFFSET CHANGED FROM -6 TO -12
OFFSET CHANGED FROM -12 TO -3
OFFSET CHANGED FROM -3 TO -6
OFFSET CHANGED FROM -6 TO -6
OFFSET CHANGED FROM -6 TO -9
OFFSET CHANGED FROM -9 TO -12
OFFSET CHANGED FROM -12 TO -9
OFFSET CHANGED FROM -9 TO -9
OFFSET CHANGED FROM -9 TO -3
OFFSET CHANGED FROM -3 TO -3
OFFSET CHANGED FROM -3 TO -12
OFFSET CHANGED FROM -12 TO -6
OFFSET CHANGED FROM -6 TO -6
OFFSET CHANGED FROM -6 TO -9
OFFSET CHANGED FROM -9 TO -3
OFFSET CHANGED FROM -3 TO -12
OFFSET CHANGED FROM -12 TO -6
OFFSET CHANGED FROM -6 TO -6
OFFSET CHANGED FROM -6 TO -3
OFFSET CHANGED FROM -3 TO -9
OFFSET CHANGED FROM -9 TO -12
OFFSET CHANGED FROM -12 TO -6
OFFSET CHANGED FROM -6 TO -9
OFFSET CHANGED FROM -9 TO -6
OFFSET CHANGED FROM -6 TO -6
OFFSET CHANGED FROM -6 TO -3
OFFSET CHANGED FROM -3 TO -6
OFFSET CHANGED FROM -6 TO -6
OFFSET CHANGED FROM -6 TO -6
OFFSET CHANGED FROM -6 TO -6
OFFSET CHANGED FROM -6 TO -3
OFFSET CHANGED FROM -3 TO -3
OFFSET CHANGED FROM -3 TO -3
OFFSET CHANGED FROM -3 TO -3
OFFSET CHANGED FROM -3 TO -3
OFFSET CHANGED FROM -3 TO -12
OFFSET CHANGED FROM -12 TO -12
OFFSET CHANGED FROM -12 TO -6
OFFSET CHANGED FROM -6 TO -12
OFFSET CHANGED FROM -12 TO -12
OFFSET CHANGED FROM -12 TO -9
OFFSET CHANGED FROM -9 TO -3
OFFSET CHANGED FROM -3 TO -12
OFFSET CHANGED FROM -12 TO -12
OFFSET CHANGED FROM -12 TO -6
OFFSET CHANGED FROM -6 TO -3
OFFSET CHANGED FROM -3 TO -3
OFFSET CHANGED FROM -3 TO -3
OFFSET CHANGED FROM -3 TO -3
OFFSET CHANGED FROM -3 TO -3
OFFSET CHANGED FROM -3 TO -3
OFFSET CHANGED FROM -3 TO -3
OFFSET CHANGED FROM -3 TO -12
OFFSET CHANGED FROM -12 TO -9
OFFSET CHANGED FROM -9 TO -12
OFFSET CHANGED FROM -12 TO -9
OFFSET CHANGED FROM -9 TO -3
OFFSET CHANGED FROM -3 TO -3
OFFSET CHANGED FROM -3 TO -3
OFFSET CHANGED FROM -3 TO -6
OFFSET CHANGED FROM -6 TO -6
OFFSET CHANGED FROM -6 TO -9
OFFSET CHANGED FROM -9 TO -9
OFFSET CHANGED FROM -9 TO -9
OFFSET CHANGED FROM -9 TO -9
OFFSET CHANGED FROM -9 TO -6
OFFSET CHANGED FROM -6 TO -9
OFFSET CHANGED FROM -9 TO -9
OFFSET CHANGED FROM -9 TO -9
OFFSET CHANGED FROM -9 TO -6
OFFSET CHANGED FROM -6 TO -6
OFFSET CHANGED FROM -6 TO -3
OFFSET CHANGED FROM -3 TO -3
OFFSET CHANGED FROM -3 TO -3
OFFSET CHANGED FROM -3 TO -3
OFFSET CHANGED FROM -3 TO -6
OFFSET CHANGED FROM -6 TO -3
OFFSET CHANGED FROM -3 TO -12
OFFSET CHANGED FROM -12 TO -12
OFFSET CHANGED FROM -12 TO -12
OFFSET CHANGED FROM -12 TO -6
OFFSET CHANGED FROM -6 TO -12
OFFSET CHANGED FROM -12 TO -3
OFFSET CHANGED FROM -3 TO -3
OFFSET CHANGED FROM -3 TO -3
OFFSET CHANGED FROM -3 TO -3
OFFSET CHANGED FROM -3 TO -9
OFFSET CHANGED FROM -9 TO -3
OFFSET CHANGED FROM -3 TO -15
OFFSET CHANGED FROM -15 TO -15
OFFSET CHANGED FROM -15 TO -6
OFFSET CHANGED FROM -6 TO -3
OFFSET CHANGED FROM -3 TO -9
OFFSET CHANGED FROM -9 TO -6
OFFSET CHANGED FROM -6 TO -3
OFFSET CHANGED FROM -3 TO -9
OFFSET CHANGED FROM -9 TO -9
OFFSET CHANGED FROM -9 TO -6
OFFSET CHANGED FROM -6 TO -9
OFFSET CHANGED FROM -9 TO -6
OFFSET CHANGED FROM -6 TO -6
OFFSET CHANGED FROM -6 TO -3
Heartbeat CPU 0 instructions: 40000002 cycles: 16812392 heartbeat IPC: 2.67291 cumulative IPC: 2.3792 (Simulation time: 0 hr 1 min 59 sec) 
OFFSET CHANGED FROM -3 TO -3
OFFSET CHANGED FROM -3 TO -9
OFFSET CHANGED FROM -9 TO -6
OFFSET CHANGED FROM -6 TO -9
OFFSET CHANGED FROM -9 TO -12
OFFSET CHANGED FROM -12 TO -12
OFFSET CHANGED FROM -12 TO -3
OFFSET CHANGED FROM -3 TO -3
OFFSET CHANGED FROM -3 TO -6
OFFSET CHANGED FROM -6 TO -3
OFFSET CHANGED FROM -3 TO -3
OFFSET CHANGED FROM -3 TO -6
OFFSET CHANGED FROM -6 TO -9
OFFSET CHANGED FROM -9 TO -6
OFFSET CHANGED FROM -6 TO -6
OFFSET CHANGED FROM -6 TO -3
OFFSET CHANGED FROM -3 TO -9
OFFSET CHANGED FROM -9 TO -12
OFFSET CHANGED FROM -12 TO -12
OFFSET CHANGED FROM -12 TO -6
OFFSET CHANGED FROM -6 TO -12
OFFSET CHANGED FROM -12 TO -12
OFFSET CHANGED FROM -12 TO -6
OFFSET CHANGED FROM -6 TO -15
OFFSET CHANGED FROM -15 TO -6
OFFSET CHANGED FROM -6 TO -6
OFFSET CHANGED FROM -6 TO -3
OFFSET CHANGED FROM -3 TO -6
OFFSET CHANGED FROM -6 TO -3
OFFSET CHANGED FROM -3 TO -3
OFFSET CHANGED FROM -3 TO -3
OFFSET CHANGED FROM -3 TO -12
OFFSET CHANGED FROM -12 TO -3
OFFSET CHANGED FROM -3 TO -3
OFFSET CHANGED FROM -3 TO -9
OFFSET CHANGED FROM -9 TO -12
OFFSET CHANGED FROM -12 TO -3
OFFSET CHANGED FROM -3 TO -12
OFFSET CHANGED FROM -12 TO -9
OFFSET CHANGED FROM -9 TO -6
OFFSET CHANGED FROM -6 TO -12
OFFSET CHANGED FROM -12 TO -12
OFFSET CHANGED FROM -12 TO -6
OFFSET CHANGED FROM -6 TO -12
OFFSET CHANGED FROM -12 TO -12
OFFSET CHANGED FROM -12 TO -6
OFFSET CHANGED FROM -6 TO -6
OFFSET CHANGED FROM -6 TO -9
OFFSET CHANGED FROM -9 TO -6
OFFSET CHANGED FROM -6 TO -9
OFFSET CHANGED FROM -9 TO -6
OFFSET CHANGED FROM -6 TO -3
OFFSET CHANGED FROM -3 TO -3
OFFSET CHANGED FROM -3 TO -9
OFFSET CHANGED FROM -9 TO -12
OFFSET CHANGED FROM -12 TO -3
OFFSET CHANGED FROM -3 TO -3
OFFSET CHANGED FROM -3 TO -3
OFFSET CHANGED FROM -3 TO -6
OFFSET CHANGED FROM -6 TO -3
OFFSET CHANGED FROM -3 TO -6
OFFSET CHANGED FROM -6 TO -3
OFFSET CHANGED FROM -3 TO -6
OFFSET CHANGED FROM -6 TO -6
OFFSET CHANGED FROM -6 TO -6
OFFSET CHANGED FROM -6 TO -3
OFFSET CHANGED FROM -3 TO -6
OFFSET CHANGED FROM -6 TO -6
OFFSET CHANGED FROM -6 TO -6
OFFSET CHANGED FROM -6 TO -3
OFFSET CHANGED FROM -3 TO -6
OFFSET CHANGED FROM -6 TO -3
OFFSET CHANGED FROM -3 TO -9
OFFSET CHANGED FROM -9 TO -9
OFFSET CHANGED FROM -9 TO -3
OFFSET CHANGED FROM -3 TO -3
OFFSET CHANGED FROM -3 TO -6
OFFSET CHANGED FROM -6 TO -3
OFFSET CHANGED FROM -3 TO -3
OFFSET CHANGED FROM -3 TO -3
OFFSET CHANGED FROM -3 TO -3
OFFSET CHANGED FROM -3 TO -3
OFFSET CHANGED FROM -3 TO -3
OFFSET CHANGED FROM -3 TO -3
OFFSET CHANGED FROM -3 TO -6
OFFSET CHANGED FROM -6 TO -3
OFFSET CHANGED FROM -3 TO -15
OFFSET CHANGED FROM -15 TO -12
OFFSET CHANGED FROM -12 TO -12
OFFSET CHANGED FROM -12 TO -6
OFFSET CHANGED FROM -6 TO -12
OFFSET CHANGED FROM -12 TO -12
OFFSET CHANGED FROM -12 TO -6
OFFSET CHANGED FROM -6 TO -12
OFFSET CHANGED FROM -12 TO -12
OFFSET CHANGED FROM -12 TO -6
OFFSET CHANGED FROM -6 TO -12
OFFSET CHANGED FROM -12 TO -9
OFFSET CHANGED FROM -9 TO -9
OFFSET CHANGED FROM -9 TO -3
OFFSET CHANGED FROM -3 TO -6
OFFSET CHANGED FROM -6 TO -6
OFFSET CHANGED FROM -6 TO -6
OFFSET CHANGED FROM -6 TO -12
OFFSET CHANGED FROM -12 TO -9
OFFSET CHANGED FROM -9 TO -6
OFFSET CHANGED FROM -6 TO -12
OFFSET CHANGED FROM -12 TO -6
OFFSET CHANGED FROM -6 TO -15
OFFSET CHANGED FROM -15 TO -6
OFFSET CHANGED FROM -6 TO -12
OFFSET CHANGED FROM -12 TO -12
OFFSET CHANGED FROM -12 TO -6
OFFSET CHANGED FROM -6 TO -6
OFFSET CHANGED FROM -6 TO -6
OFFSET CHANGED FROM -6 TO -3
OFFSET CHANGED FROM -3 TO -12
OFFSET CHANGED FROM -12 TO -12
OFFSET CHANGED FROM -12 TO -6
OFFSET CHANGED FROM -6 TO -3
OFFSET CHANGED FROM -3 TO -6
OFFSET CHANGED FROM -6 TO -6
OFFSET CHANGED FROM -6 TO -3
OFFSET CHANGED FROM -3 TO -6
OFFSET CHANGED FROM -6 TO -6
OFFSET CHANGED FROM -6 TO -6
OFFSET CHANGED FROM -6 TO -3
OFFSET CHANGED FROM -3 TO -3
OFFSET CHANGED FROM -3 TO -12
OFFSET CHANGED FROM -12 TO -6
OFFSET CHANGED FROM -6 TO -12
OFFSET CHANGED FROM -12 TO -12
OFFSET CHANGED FROM -12 TO -15
OFFSET CHANGED FROM -15 TO -9
OFFSET CHANGED FROM -9 TO -3
OFFSET CHANGED FROM -3 TO -15
OFFSET CHANGED FROM -15 TO -15
OFFSET CHANGED FROM -15 TO -6
OFFSET CHANGED FROM -6 TO -3
OFFSET CHANGED FROM -3 TO -9
OFFSET CHANGED FROM -9 TO -9
OFFSET CHANGED FROM -9 TO -3
OFFSET CHANGED FROM -3 TO -3
OFFSET CHANGED FROM -3 TO -9
OFFSET CHANGED FROM -9 TO -6
OFFSET CHANGED FROM -6 TO -3
OFFSET CHANGED FROM -3 TO -9
OFFSET CHANGED FROM -9 TO -6
OFFSET CHANGED FROM -6 TO -3
OFFSET CHANGED FROM -3 TO -9
OFFSET CHANGED FROM -9 TO -3
OFFSET CHANGED FROM -3 TO -3
OFFSET CHANGED FROM -3 TO -9
OFFSET CHANGED FROM -9 TO -3
OFFSET CHANGED FROM -3 TO -3
OFFSET CHANGED FROM -3 TO -6
OFFSET CHANGED FROM -6 TO -12
OFFSET CHANGED FROM -12 TO -15
OFFSET CHANGED FROM -15 TO -9
OFFSET CHANGED FROM -9 TO -6
OFFSET CHANGED FROM -6 TO -6
OFFSET CHANGED FROM -6 TO -3
OFFSET CHANGED FROM -3 TO -3
OFFSET CHANGED FROM -3 TO -3
OFFSET CHANGED FROM -3 TO -3
OFFSET CHANGED FROM -3 TO -3
OFFSET CHANGED FROM -3 TO -9
OFFSET CHANGED FROM -9 TO -3
OFFSET CHANGED FROM -3 TO -3
OFFSET CHANGED FROM -3 TO -12
OFFSET CHANGED FROM -12 TO -6
OFFSET CHANGED FROM -6 TO -12
OFFSET CHANGED FROM -12 TO -12
OFFSET CHANGED FROM -12 TO -9
OFFSET CHANGED FROM -9 TO -3
OFFSET CHANGED FROM -3 TO -12
OFFSET CHANGED FROM -12 TO -9
OFFSET CHANGED FROM -9 TO -6
OFFSET CHANGED FROM -6 TO -3
OFFSET CHANGED FROM -3 TO -9
OFFSET CHANGED FROM -9 TO -6
OFFSET CHANGED FROM -6 TO -3
OFFSET CHANGED FROM -3 TO -3
OFFSET CHANGED FROM -3 TO -9
OFFSET CHANGED FROM -9 TO -3
OFFSET CHANGED FROM -3 TO -3
OFFSET CHANGED FROM -3 TO -9
OFFSET CHANGED FROM -9 TO -9
OFFSET CHANGED FROM -9 TO -3
OFFSET CHANGED FROM -3 TO -3
OFFSET CHANGED FROM -3 TO -3
OFFSET CHANGED FROM -3 TO -3
OFFSET CHANGED FROM -3 TO -3
OFFSET CHANGED FROM -3 TO -3
OFFSET CHANGED FROM -3 TO -3
OFFSET CHANGED FROM -3 TO -3
OFFSET CHANGED FROM -3 TO -9
OFFSET CHANGED FROM -9 TO -6
OFFSET CHANGED FROM -6 TO -3
OFFSET CHANGED FROM -3 TO -3
OFFSET CHANGED FROM -3 TO -3
OFFSET CHANGED FROM -3 TO -3
OFFSET CHANGED FROM -3 TO -6
OFFSET CHANGED FROM -6 TO -12
OFFSET CHANGED FROM -12 TO -6
OFFSET CHANGED FROM -6 TO -15
OFFSET CHANGED FROM -15 TO -15
OFFSET CHANGED FROM -15 TO -12
OFFSET CHANGED FROM -12 TO -9
OFFSET CHANGED FROM -9 TO -6
OFFSET CHANGED FROM -6 TO -6
OFFSET CHANGED FROM -6 TO -3
OFFSET CHANGED FROM -3 TO -9
OFFSET CHANGED FROM -9 TO -9
OFFSET CHANGED FROM -9 TO -3
OFFSET CHANGED FROM -3 TO -3
OFFSET CHANGED FROM -3 TO -9
OFFSET CHANGED FROM -9 TO -6
OFFSET CHANGED FROM -6 TO -3
OFFSET CHANGED FROM -3 TO -6
OFFSET CHANGED FROM -6 TO -3
OFFSET CHANGED FROM -3 TO -3
OFFSET CHANGED FROM -3 TO -6
OFFSET CHANGED FROM -6 TO -6
OFFSET CHANGED FROM -6 TO -6
OFFSET CHANGED FROM -6 TO -12
OFFSET CHANGED FROM -12 TO -9
OFFSET CHANGED FROM -9 TO -3
OFFSET CHANGED FROM -3 TO -3
OFFSET CHANGED FROM -3 TO -3
OFFSET CHANGED FROM -3 TO -3
OFFSET CHANGED FROM -3 TO -3
OFFSET CHANGED FROM -3 TO -9
OFFSET CHANGED FROM -9 TO -6
OFFSET CHANGED FROM -6 TO -3
OFFSET CHANGED FROM -3 TO -9
OFFSET CHANGED FROM -9 TO -6
OFFSET CHANGED FROM -6 TO -3
OFFSET CHANGED FROM -3 TO -15
OFFSET CHANGED FROM -15 TO -9
OFFSET CHANGED FROM -9 TO -6
OFFSET CHANGED FROM -6 TO -15
OFFSET CHANGED FROM -15 TO -15
OFFSET CHANGED FROM -15 TO -9
OFFSET CHANGED FROM -9 TO -3
OFFSET CHANGED FROM -3 TO -9
OFFSET CHANGED FROM -9 TO -6
OFFSET CHANGED FROM -6 TO -3
OFFSET CHANGED FROM -3 TO -6
OFFSET CHANGED FROM -6 TO -3
OFFSET CHANGED FROM -3 TO -6
OFFSET CHANGED FROM -6 TO -12
OFFSET CHANGED FROM -12 TO -6
OFFSET CHANGED FROM -6 TO -6
OFFSET CHANGED FROM -6 TO -9
OFFSET CHANGED FROM -9 TO -12
OFFSET CHANGED FROM -12 TO -9
OFFSET CHANGED FROM -9 TO -9
OFFSET CHANGED FROM -9 TO -12
OFFSET CHANGED FROM -12 TO -18
OFFSET CHANGED FROM -18 TO -15
Heartbeat CPU 0 instructions: 50000002 cycles: 20903861 heartbeat IPC: 2.44411 cumulative IPC: 2.3919 (Simulation time: 0 hr 2 min 29 sec) 

Warmup complete CPU 0 instructions: 50000002 cycles: 20903861 (Simulation time: 0 hr 2 min 29 sec) 

OFFSET CHANGED FROM -15 TO -6
OFFSET CHANGED FROM -6 TO -12
OFFSET CHANGED FROM -12 TO -12
OFFSET CHANGED FROM -12 TO -6
OFFSET CHANGED FROM -6 TO -12
OFFSET CHANGED FROM -12 TO -9
OFFSET CHANGED FROM -9 TO -6
OFFSET CHANGED FROM -6 TO -6
OFFSET CHANGED FROM -6 TO -9
OFFSET CHANGED FROM -9 TO -15
OFFSET CHANGED FROM -15 TO -6
OFFSET CHANGED FROM -6 TO -6
OFFSET CHANGED FROM -6 TO -9
OFFSET CHANGED FROM -9 TO -9
OFFSET CHANGED FROM -9 TO -6
OFFSET CHANGED FROM -6 TO -9
OFFSET CHANGED FROM -9 TO -6
OFFSET CHANGED FROM -6 TO -6
OFFSET CHANGED FROM -6 TO -6
OFFSET CHANGED FROM -6 TO -6
OFFSET CHANGED FROM -6 TO -6
OFFSET CHANGED FROM -6 TO -6
OFFSET CHANGED FROM -6 TO -6
OFFSET CHANGED FROM -6 TO -6
OFFSET CHANGED FROM -6 TO -6
OFFSET CHANGED FROM -6 TO -6
OFFSET CHANGED FROM -6 TO -6
OFFSET CHANGED FROM -6 TO -6
OFFSET CHANGED FROM -6 TO -6
OFFSET CHANGED FROM -6 TO -15
OFFSET CHANGED FROM -15 TO -9
OFFSET CHANGED FROM -9 TO -15
OFFSET CHANGED FROM -15 TO -15
OFFSET CHANGED FROM -15 TO -9
OFFSET CHANGED FROM -9 TO -9
OFFSET CHANGED FROM -9 TO -12
OFFSET CHANGED FROM -12 TO -9
OFFSET CHANGED FROM -9 TO -6
OFFSET CHANGED FROM -6 TO -12
OFFSET CHANGED FROM -12 TO -12
OFFSET CHANGED FROM -12 TO -12
OFFSET CHANGED FROM -12 TO -12
OFFSET CHANGED FROM -12 TO -6
PREFETCHING INTO L2 w/ PREFETCH SCORE 31 (MSHR OCC = 28)
PREFETCHING INTO L2 w/ PREFETCH SCORE 31 (MSHR OCC = 29)
PREFETCHING INTO L2 w/ PREFETCH SCORE 31 (MSHR OCC = 29)
PREFETCHING INTO L2 w/ PREFETCH SCORE 31 (MSHR OCC = 28)
PREFETCHING INTO L2 w/ PREFETCH SCORE 31 (MSHR OCC = 28)
PREFETCHING INTO L2 w/ PREFETCH SCORE 31 (MSHR OCC = 29)
OFFSET CHANGED FROM -6 TO -9
PREFETCHING INTO L2 w/ PREFETCH SCORE 31 (MSHR OCC = 28)
OFFSET CHANGED FROM -9 TO -6
OFFSET CHANGED FROM -6 TO -6
OFFSET CHANGED FROM -6 TO -12
OFFSET CHANGED FROM -12 TO -18
OFFSET CHANGED FROM -18 TO -18
OFFSET CHANGED FROM -18 TO -15
OFFSET CHANGED FROM -15 TO -9
OFFSET CHANGED FROM -9 TO -6
OFFSET CHANGED FROM -6 TO -9
OFFSET CHANGED FROM -9 TO -6
OFFSET CHANGED FROM -6 TO -9
OFFSET CHANGED FROM -9 TO -9
OFFSET CHANGED FROM -9 TO -9
OFFSET CHANGED FROM -9 TO -6
OFFSET CHANGED FROM -6 TO -6
OFFSET CHANGED FROM -6 TO -6
OFFSET CHANGED FROM -6 TO -6
OFFSET CHANGED FROM -6 TO -6
OFFSET CHANGED FROM -6 TO -6
OFFSET CHANGED FROM -6 TO -6
OFFSET CHANGED FROM -6 TO -9
OFFSET CHANGED FROM -9 TO -12
OFFSET CHANGED FROM -12 TO -6
OFFSET CHANGED FROM -6 TO -6
OFFSET CHANGED FROM -6 TO -12
OFFSET CHANGED FROM -12 TO -12
OFFSET CHANGED FROM -12 TO -9
OFFSET CHANGED FROM -9 TO -6
OFFSET CHANGED FROM -6 TO -15
OFFSET CHANGED FROM -15 TO -15
OFFSET CHANGED FROM -15 TO -9
OFFSET CHANGED FROM -9 TO -6
OFFSET CHANGED FROM -6 TO -9
OFFSET CHANGED FROM -9 TO -9
OFFSET CHANGED FROM -9 TO -6
OFFSET CHANGED FROM -6 TO -9
OFFSET CHANGED FROM -9 TO -9
OFFSET CHANGED FROM -9 TO -6
OFFSET CHANGED FROM -6 TO -9
OFFSET CHANGED FROM -9 TO -9
OFFSET CHANGED FROM -9 TO -6
OFFSET CHANGED FROM -6 TO -9
OFFSET CHANGED FROM -9 TO -9
OFFSET CHANGED FROM -9 TO -9
OFFSET CHANGED FROM -9 TO -6
OFFSET CHANGED FROM -6 TO -6
PREFETCHING INTO L2 w/ PREFETCH SCORE 31 (MSHR OCC = 30)
PREFETCHING INTO L2 w/ PREFETCH SCORE 31 (MSHR OCC = 29)
PREFETCHING INTO L2 w/ PREFETCH SCORE 31 (MSHR OCC = 28)
PREFETCHING INTO L2 w/ PREFETCH SCORE 31 (MSHR OCC = 28)
PREFETCHING INTO L2 w/ PREFETCH SCORE 31 (MSHR OCC = 28)
PREFETCHING INTO L2 w/ PREFETCH SCORE 31 (MSHR OCC = 29)
OFFSET CHANGED FROM -6 TO -6
OFFSET CHANGED FROM -6 TO -6
OFFSET CHANGED FROM -6 TO -6
OFFSET CHANGED FROM -6 TO -9
OFFSET CHANGED FROM -9 TO -6
OFFSET CHANGED FROM -6 TO -6
OFFSET CHANGED FROM -6 TO -6
OFFSET CHANGED FROM -6 TO -6
OFFSET CHANGED FROM -6 TO -12
OFFSET CHANGED FROM -12 TO -12
OFFSET CHANGED FROM -12 TO -6
OFFSET CHANGED FROM -6 TO -12
OFFSET CHANGED FROM -12 TO -12
OFFSET CHANGED FROM -12 TO -6
OFFSET CHANGED FROM -6 TO -12
OFFSET CHANGED FROM -12 TO -12
OFFSET CHANGED FROM -12 TO -6
OFFSET CHANGED FROM -6 TO -6
OFFSET CHANGED FROM -6 TO -9
OFFSET CHANGED FROM -9 TO -6
OFFSET CHANGED FROM -6 TO -6
OFFSET CHANGED FROM -6 TO -6
OFFSET CHANGED FROM -6 TO -9
OFFSET CHANGED FROM -9 TO -6
OFFSET CHANGED FROM -6 TO -12
OFFSET CHANGED FROM -12 TO -9
OFFSET CHANGED FROM -9 TO -6
OFFSET CHANGED FROM -6 TO -15
OFFSET CHANGED FROM -15 TO -12
OFFSET CHANGED FROM -12 TO -6
OFFSET CHANGED FROM -6 TO -6
OFFSET CHANGED FROM -6 TO -12
OFFSET CHANGED FROM -12 TO -9
OFFSET CHANGED FROM -9 TO -6
OFFSET CHANGED FROM -6 TO -6
OFFSET CHANGED FROM -6 TO -12
OFFSET CHANGED FROM -12 TO -12
OFFSET CHANGED FROM -12 TO -6
OFFSET CHANGED FROM -6 TO -15
OFFSET CHANGED FROM -15 TO -12
OFFSET CHANGED FROM -12 TO -6
OFFSET CHANGED FROM -6 TO -12
OFFSET CHANGED FROM -12 TO -12
OFFSET CHANGED FROM -12 TO -12
OFFSET CHANGED FROM -12 TO -6
OFFSET CHANGED FROM -6 TO -6
OFFSET CHANGED FROM -6 TO -6
OFFSET CHANGED FROM -6 TO -6
OFFSET CHANGED FROM -6 TO -6
OFFSET CHANGED FROM -6 TO -6
OFFSET CHANGED FROM -6 TO -9
PREFETCHING INTO L2 w/ PREFETCH SCORE 31 (MSHR OCC = 28)
OFFSET CHANGED FROM -9 TO -6
OFFSET CHANGED FROM -6 TO -6
OFFSET CHANGED FROM -6 TO -6
OFFSET CHANGED FROM -6 TO -6
OFFSET CHANGED FROM -6 TO -15
OFFSET CHANGED FROM -15 TO -15
OFFSET CHANGED FROM -15 TO -9
OFFSET CHANGED FROM -9 TO -12
OFFSET CHANGED FROM -12 TO -12
OFFSET CHANGED FROM -12 TO -12
OFFSET CHANGED FROM -12 TO -6
OFFSET CHANGED FROM -6 TO -6
OFFSET CHANGED FROM -6 TO -6
OFFSET CHANGED FROM -6 TO -6
OFFSET CHANGED FROM -6 TO -6
OFFSET CHANGED FROM -6 TO -6
OFFSET CHANGED FROM -6 TO -9
OFFSET CHANGED FROM -9 TO -6
OFFSET CHANGED FROM -6 TO -12
OFFSET CHANGED FROM -12 TO -9
OFFSET CHANGED FROM -9 TO -6
OFFSET CHANGED FROM -6 TO -9
OFFSET CHANGED FROM -9 TO -6
OFFSET CHANGED FROM -6 TO -6
OFFSET CHANGED FROM -6 TO -9
OFFSET CHANGED FROM -9 TO -6
OFFSET CHANGED FROM -6 TO -6
OFFSET CHANGED FROM -6 TO -9
OFFSET CHANGED FROM -9 TO -9
OFFSET CHANGED FROM -9 TO -12
OFFSET CHANGED FROM -12 TO -6
OFFSET CHANGED FROM -6 TO -12
OFFSET CHANGED FROM -12 TO -12
OFFSET CHANGED FROM -12 TO -12
OFFSET CHANGED FROM -12 TO -6
OFFSET CHANGED FROM -6 TO -12
OFFSET CHANGED FROM -12 TO -9
OFFSET CHANGED FROM -9 TO -6
OFFSET CHANGED FROM -6 TO -9
OFFSET CHANGED FROM -9 TO -6
OFFSET CHANGED FROM -6 TO -6
OFFSET CHANGED FROM -6 TO -6
OFFSET CHANGED FROM -6 TO -9
OFFSET CHANGED FROM -9 TO -9
OFFSET CHANGED FROM -9 TO -6
OFFSET CHANGED FROM -6 TO -6
OFFSET CHANGED FROM -6 TO -12
OFFSET CHANGED FROM -12 TO -9
OFFSET CHANGED FROM -9 TO -6
OFFSET CHANGED FROM -6 TO -15
OFFSET CHANGED FROM -15 TO -12
OFFSET CHANGED FROM -12 TO -12
OFFSET CHANGED FROM -12 TO -9
OFFSET CHANGED FROM -9 TO -6
OFFSET CHANGED FROM -6 TO -6
PREFETCHING INTO L2 w/ PREFETCH SCORE 31 (MSHR OCC = 28)
PREFETCHING INTO L2 w/ PREFETCH SCORE 31 (MSHR OCC = 28)
PREFETCHING INTO L2 w/ PREFETCH SCORE 31 (MSHR OCC = 29)
PREFETCHING INTO L2 w/ PREFETCH SCORE 31 (MSHR OCC = 30)
OFFSET CHANGED FROM -6 TO -12
OFFSET CHANGED FROM -12 TO -9
OFFSET CHANGED FROM -9 TO -6
OFFSET CHANGED FROM -6 TO -9
OFFSET CHANGED FROM -9 TO -12
OFFSET CHANGED FROM -12 TO -6
OFFSET CHANGED FROM -6 TO -6
OFFSET CHANGED FROM -6 TO -6
OFFSET CHANGED FROM -6 TO -6
OFFSET CHANGED FROM -6 TO -15
OFFSET CHANGED FROM -15 TO -9
OFFSET CHANGED FROM -9 TO -6
OFFSET CHANGED FROM -6 TO -15
OFFSET CHANGED FROM -15 TO -12
OFFSET CHANGED FROM -12 TO -6
OFFSET CHANGED FROM -6 TO -12
OFFSET CHANGED FROM -12 TO -12
OFFSET CHANGED FROM -12 TO -6
OFFSET CHANGED FROM -6 TO -12
OFFSET CHANGED FROM -12 TO -18
OFFSET CHANGED FROM -18 TO -12
OFFSET CHANGED FROM -12 TO -12
OFFSET CHANGED FROM -12 TO -12
OFFSET CHANGED FROM -12 TO -6
OFFSET CHANGED FROM -6 TO -12
OFFSET CHANGED FROM -12 TO -12
OFFSET CHANGED FROM -12 TO -9
OFFSET CHANGED FROM -9 TO -6
OFFSET CHANGED FROM -6 TO -12
OFFSET CHANGED FROM -12 TO -9
OFFSET CHANGED FROM -9 TO -6
OFFSET CHANGED FROM -6 TO -9
OFFSET CHANGED FROM -9 TO -12
OFFSET CHANGED FROM -12 TO -6
OFFSET CHANGED FROM -6 TO -6
OFFSET CHANGED FROM -6 TO -12
OFFSET CHANGED FROM -12 TO -18
OFFSET CHANGED FROM -18 TO -18
OFFSET CHANGED FROM -18 TO -3
OFFSET CHANGED FROM -3 TO -9
OFFSET CHANGED FROM -9 TO -15
OFFSET CHANGED FROM -15 TO -15
OFFSET CHANGED FROM -15 TO -3
OFFSET CHANGED FROM -3 TO -3
OFFSET CHANGED FROM -3 TO -6
OFFSET CHANGED FROM -6 TO -2
OFFSET CHANGED FROM -2 TO -9
OFFSET CHANGED FROM -9 TO -24
OFFSET CHANGED FROM -24 TO -18
OFFSET CHANGED FROM -18 TO -18
OFFSET CHANGED FROM -18 TO -6
OFFSET CHANGED FROM -6 TO -12
OFFSET CHANGED FROM -12 TO -12
OFFSET CHANGED FROM -12 TO -9
OFFSET CHANGED FROM -9 TO -9
OFFSET CHANGED FROM -9 TO -6
OFFSET CHANGED FROM -6 TO -3
OFFSET CHANGED FROM -3 TO -6
OFFSET CHANGED FROM -6 TO -6
OFFSET CHANGED FROM -6 TO -9
OFFSET CHANGED FROM -9 TO -9
OFFSET CHANGED FROM -9 TO -9
OFFSET CHANGED FROM -9 TO -9
OFFSET CHANGED FROM -9 TO -9
OFFSET CHANGED FROM -9 TO -6
OFFSET CHANGED FROM -6 TO -6
OFFSET CHANGED FROM -6 TO -9
OFFSET CHANGED FROM -9 TO -18
OFFSET CHANGED FROM -18 TO -12
OFFSET CHANGED FROM -12 TO -12
OFFSET CHANGED FROM -12 TO -6
OFFSET CHANGED FROM -6 TO -6
OFFSET CHANGED FROM -6 TO -6
OFFSET CHANGED FROM -6 TO -6
OFFSET CHANGED FROM -6 TO -12
OFFSET CHANGED FROM -12 TO -9
OFFSET CHANGED FROM -9 TO -6
OFFSET CHANGED FROM -6 TO -9
OFFSET CHANGED FROM -9 TO -12
OFFSET CHANGED FROM -12 TO -6
OFFSET CHANGED FROM -6 TO -6
OFFSET CHANGED FROM -6 TO -6
OFFSET CHANGED FROM -6 TO -6
OFFSET CHANGED FROM -6 TO -6
OFFSET CHANGED FROM -6 TO -6
OFFSET CHANGED FROM -6 TO -6
OFFSET CHANGED FROM -6 TO -9
OFFSET CHANGED FROM -9 TO -9
OFFSET CHANGED FROM -9 TO -6
OFFSET CHANGED FROM -6 TO -12
OFFSET CHANGED FROM -12 TO -12
OFFSET CHANGED FROM -12 TO -6
OFFSET CHANGED FROM -6 TO -6
OFFSET CHANGED FROM -6 TO -6
OFFSET CHANGED FROM -6 TO -6
OFFSET CHANGED FROM -6 TO -12
OFFSET CHANGED FROM -12 TO -9
OFFSET CHANGED FROM -9 TO -12
OFFSET CHANGED FROM -12 TO -12
OFFSET CHANGED FROM -12 TO -12
OFFSET CHANGED FROM -12 TO -6
OFFSET CHANGED FROM -6 TO -12
OFFSET CHANGED FROM -12 TO -12
OFFSET CHANGED FROM -12 TO -6
OFFSET CHANGED FROM -6 TO -12
OFFSET CHANGED FROM -12 TO -9
OFFSET CHANGED FROM -9 TO -6
OFFSET CHANGED FROM -6 TO -6
OFFSET CHANGED FROM -6 TO -9
OFFSET CHANGED FROM -9 TO -6
OFFSET CHANGED FROM -6 TO -6
OFFSET CHANGED FROM -6 TO -9
OFFSET CHANGED FROM -9 TO -9
OFFSET CHANGED FROM -9 TO -6
OFFSET CHANGED FROM -6 TO -9
OFFSET CHANGED FROM -9 TO -12
OFFSET CHANGED FROM -12 TO -6
OFFSET CHANGED FROM -6 TO -6
OFFSET CHANGED FROM -6 TO -6
OFFSET CHANGED FROM -6 TO -6
OFFSET CHANGED FROM -6 TO -12
OFFSET CHANGED FROM -12 TO -12
OFFSET CHANGED FROM -12 TO -6
OFFSET CHANGED FROM -6 TO -12
OFFSET CHANGED FROM -12 TO -12
OFFSET CHANGED FROM -12 TO -6
OFFSET CHANGED FROM -6 TO -12
OFFSET CHANGED FROM -12 TO -12
OFFSET CHANGED FROM -12 TO -6
OFFSET CHANGED FROM -6 TO -12
OFFSET CHANGED FROM -12 TO -12
OFFSET CHANGED FROM -12 TO -12
OFFSET CHANGED FROM -12 TO -12
OFFSET CHANGED FROM -12 TO -12
OFFSET CHANGED FROM -12 TO -15
OFFSET CHANGED FROM -15 TO -9
OFFSET CHANGED FROM -9 TO -15
OFFSET CHANGED FROM -15 TO -12
OFFSET CHANGED FROM -12 TO -6
OFFSET CHANGED FROM -6 TO -6
OFFSET CHANGED FROM -6 TO -6
OFFSET CHANGED FROM -6 TO -6
OFFSET CHANGED FROM -6 TO -6
OFFSET CHANGED FROM -6 TO -9
OFFSET CHANGED FROM -9 TO -9
OFFSET CHANGED FROM -9 TO -9
OFFSET CHANGED FROM -9 TO -9
OFFSET CHANGED FROM -9 TO -9
OFFSET CHANGED FROM -9 TO -9
OFFSET CHANGED FROM -9 TO -6
OFFSET CHANGED FROM -6 TO -6
OFFSET CHANGED FROM -6 TO -9
OFFSET CHANGED FROM -9 TO -9
OFFSET CHANGED FROM -9 TO -9
OFFSET CHANGED FROM -9 TO -12
OFFSET CHANGED FROM -12 TO -12
OFFSET CHANGED FROM -12 TO -6
OFFSET CHANGED FROM -6 TO -6
OFFSET CHANGED FROM -6 TO -12
OFFSET CHANGED FROM -12 TO -12
OFFSET CHANGED FROM -12 TO -12
OFFSET CHANGED FROM -12 TO -6
OFFSET CHANGED FROM -6 TO -15
OFFSET CHANGED FROM -15 TO -15
OFFSET CHANGED FROM -15 TO -6
OFFSET CHANGED FROM -6 TO -15
OFFSET CHANGED FROM -15 TO -9
OFFSET CHANGED FROM -9 TO -6
OFFSET CHANGED FROM -6 TO -15
OFFSET CHANGED FROM -15 TO -18
OFFSET CHANGED FROM -18 TO -18
OFFSET CHANGED FROM -18 TO -15
OFFSET CHANGED FROM -15 TO -12
OFFSET CHANGED FROM -12 TO -6
OFFSET CHANGED FROM -6 TO -9
OFFSET CHANGED FROM -9 TO -9
OFFSET CHANGED FROM -9 TO -6
OFFSET CHANGED FROM -6 TO -6
OFFSET CHANGED FROM -6 TO -9
OFFSET CHANGED FROM -9 TO -9
OFFSET CHANGED FROM -9 TO -9
OFFSET CHANGED FROM -9 TO -9
OFFSET CHANGED FROM -9 TO -12
OFFSET CHANGED FROM -12 TO -12
OFFSET CHANGED FROM -12 TO -12
OFFSET CHANGED FROM -12 TO -9
OFFSET CHANGED FROM -9 TO -15
OFFSET CHANGED FROM -15 TO -12
OFFSET CHANGED FROM -12 TO -6
OFFSET CHANGED FROM -6 TO -15
OFFSET CHANGED FROM -15 TO -15
OFFSET CHANGED FROM -15 TO -9
OFFSET CHANGED FROM -9 TO -6
OFFSET CHANGED FROM -6 TO -6
OFFSET CHANGED FROM -6 TO -6
OFFSET CHANGED FROM -6 TO -6
OFFSET CHANGED FROM -6 TO -6
OFFSET CHANGED FROM -6 TO -12
OFFSET CHANGED FROM -12 TO -12
OFFSET CHANGED FROM -12 TO -6
OFFSET CHANGED FROM -6 TO -15
OFFSET CHANGED FROM -15 TO -12
OFFSET CHANGED FROM -12 TO -6
OFFSET CHANGED FROM -6 TO -6
OFFSET CHANGED FROM -6 TO -9
OFFSET CHANGED FROM -9 TO -6
OFFSET CHANGED FROM -6 TO -15
OFFSET CHANGED FROM -15 TO -15
OFFSET CHANGED FROM -15 TO -12
OFFSET CHANGED FROM -12 TO -6
OFFSET CHANGED FROM -6 TO -12
OFFSET CHANGED FROM -12 TO -12
OFFSET CHANGED FROM -12 TO -6
OFFSET CHANGED FROM -6 TO -12
OFFSET CHANGED FROM -12 TO -12
OFFSET CHANGED FROM -12 TO -6
OFFSET CHANGED FROM -6 TO -12
OFFSET CHANGED FROM -12 TO -12
OFFSET CHANGED FROM -12 TO -6
OFFSET CHANGED FROM -6 TO -9
OFFSET CHANGED FROM -9 TO -12
OFFSET CHANGED FROM -12 TO -6
OFFSET CHANGED FROM -6 TO -6
OFFSET CHANGED FROM -6 TO -6
OFFSET CHANGED FROM -6 TO -6
OFFSET CHANGED FROM -6 TO -15
OFFSET CHANGED FROM -15 TO -12
OFFSET CHANGED FROM -12 TO -6
OFFSET CHANGED FROM -6 TO -6
OFFSET CHANGED FROM -6 TO -6
OFFSET CHANGED FROM -6 TO -6
OFFSET CHANGED FROM -6 TO -9
OFFSET CHANGED FROM -9 TO -12
OFFSET CHANGED FROM -12 TO -6
OFFSET CHANGED FROM -6 TO -6
OFFSET CHANGED FROM -6 TO -6
OFFSET CHANGED FROM -6 TO -6
OFFSET CHANGED FROM -6 TO -6
OFFSET CHANGED FROM -6 TO -6
OFFSET CHANGED FROM -6 TO -6
OFFSET CHANGED FROM -6 TO -9
OFFSET CHANGED FROM -9 TO -9
OFFSET CHANGED FROM -9 TO -6
OFFSET CHANGED FROM -6 TO -9
OFFSET CHANGED FROM -9 TO -9
OFFSET CHANGED FROM -9 TO -6
OFFSET CHANGED FROM -6 TO -6
OFFSET CHANGED FROM -6 TO -6
OFFSET CHANGED FROM -6 TO -6
OFFSET CHANGED FROM -6 TO -6
OFFSET CHANGED FROM -6 TO -9
OFFSET CHANGED FROM -9 TO -6
OFFSET CHANGED FROM -6 TO -15
OFFSET CHANGED FROM -15 TO -9
OFFSET CHANGED FROM -9 TO -6
OFFSET CHANGED FROM -6 TO -9
OFFSET CHANGED FROM -9 TO -9
OFFSET CHANGED FROM -9 TO -9
OFFSET CHANGED FROM -9 TO -9
OFFSET CHANGED FROM -9 TO -6
OFFSET CHANGED FROM -6 TO -12
OFFSET CHANGED FROM -12 TO -12
OFFSET CHANGED FROM -12 TO -12
OFFSET CHANGED FROM -12 TO -12
OFFSET CHANGED FROM -12 TO -9
OFFSET CHANGED FROM -9 TO -9
OFFSET CHANGED FROM -9 TO -9
OFFSET CHANGED FROM -9 TO -6
OFFSET CHANGED FROM -6 TO -6
OFFSET CHANGED FROM -6 TO -9
OFFSET CHANGED FROM -9 TO -9
OFFSET CHANGED FROM -9 TO -9
OFFSET CHANGED FROM -9 TO -15
OFFSET CHANGED FROM -15 TO -15
OFFSET CHANGED FROM -15 TO -15
OFFSET CHANGED FROM -15 TO -9
OFFSET CHANGED FROM -9 TO -12
OFFSET CHANGED FROM -12 TO -12
OFFSET CHANGED FROM -12 TO -9
OFFSET CHANGED FROM -9 TO -6
OFFSET CHANGED FROM -6 TO -15
OFFSET CHANGED FROM -15 TO -9
OFFSET CHANGED FROM -9 TO -6
OFFSET CHANGED FROM -6 TO -6
OFFSET CHANGED FROM -6 TO -6
OFFSET CHANGED FROM -6 TO -6
OFFSET CHANGED FROM -6 TO -6
OFFSET CHANGED FROM -6 TO -6
OFFSET CHANGED FROM -6 TO -6
OFFSET CHANGED FROM -6 TO -6
OFFSET CHANGED FROM -6 TO -6
OFFSET CHANGED FROM -6 TO -9
OFFSET CHANGED FROM -9 TO -6
OFFSET CHANGED FROM -6 TO -6
OFFSET CHANGED FROM -6 TO -9
OFFSET CHANGED FROM -9 TO -9
OFFSET CHANGED FROM -9 TO -6
OFFSET CHANGED FROM -6 TO -9
OFFSET CHANGED FROM -9 TO -12
OFFSET CHANGED FROM -12 TO -6
OFFSET CHANGED FROM -6 TO -6
OFFSET CHANGED FROM -6 TO -9
OFFSET CHANGED FROM -9 TO -6
OFFSET CHANGED FROM -6 TO -9
OFFSET CHANGED FROM -9 TO -9
OFFSET CHANGED FROM -9 TO -6
OFFSET CHANGED FROM -6 TO -15
OFFSET CHANGED FROM -15 TO -6
OFFSET CHANGED FROM -6 TO -6
OFFSET CHANGED FROM -6 TO -9
OFFSET CHANGED FROM -9 TO -9
OFFSET CHANGED FROM -9 TO -6
OFFSET CHANGED FROM -6 TO -15
OFFSET CHANGED FROM -15 TO -9
OFFSET CHANGED FROM -9 TO -6
OFFSET CHANGED FROM -6 TO -15
OFFSET CHANGED FROM -15 TO -15
OFFSET CHANGED FROM -15 TO -15
OFFSET CHANGED FROM -15 TO -9
OFFSET CHANGED FROM -9 TO -9
OFFSET CHANGED FROM -9 TO -6
OFFSET CHANGED FROM -6 TO -6
OFFSET CHANGED FROM -6 TO -9
OFFSET CHANGED FROM -9 TO -9
OFFSET CHANGED FROM -9 TO -6
OFFSET CHANGED FROM -6 TO -12
OFFSET CHANGED FROM -12 TO -3
OFFSET CHANGED FROM -3 TO -9
OFFSET CHANGED FROM -9 TO -6
Heartbeat CPU 0 instructions: 60000001 cycles: 50938218 heartbeat IPC: 0.332952 cumulative IPC: 0.332952 (Simulation time: 0 hr 3 min 13 sec) 
OFFSET CHANGED FROM -6 TO -7
OFFSET CHANGED FROM -7 TO -6
OFFSET CHANGED FROM -6 TO -3
OFFSET CHANGED FROM -3 TO -6
OFFSET CHANGED FROM -6 TO -3
OFFSET CHANGED FROM -3 TO -3
OFFSET CHANGED FROM -3 TO -3
OFFSET CHANGED FROM -3 TO -12
OFFSET CHANGED FROM -12 TO -9
OFFSET CHANGED FROM -9 TO -6
OFFSET CHANGED FROM -6 TO -3
OFFSET CHANGED FROM -3 TO -15
OFFSET CHANGED FROM -15 TO -6
OFFSET CHANGED FROM -6 TO -9
OFFSET CHANGED FROM -9 TO -6
OFFSET CHANGED FROM -6 TO -6
OFFSET CHANGED FROM -6 TO -6
OFFSET CHANGED FROM -6 TO -6
OFFSET CHANGED FROM -6 TO -12
OFFSET CHANGED FROM -12 TO -6
OFFSET CHANGED FROM -6 TO -12
OFFSET CHANGED FROM -12 TO -12
OFFSET CHANGED FROM -12 TO -12
OFFSET CHANGED FROM -12 TO -9
OFFSET CHANGED FROM -9 TO -9
OFFSET CHANGED FROM -9 TO -9
OFFSET CHANGED FROM -9 TO -9
OFFSET CHANGED FROM -9 TO -9
OFFSET CHANGED FROM -9 TO -6
OFFSET CHANGED FROM -6 TO -6
OFFSET CHANGED FROM -6 TO -9
OFFSET CHANGED FROM -9 TO -9
OFFSET CHANGED FROM -9 TO -6
OFFSET CHANGED FROM -6 TO -9
OFFSET CHANGED FROM -9 TO -9
OFFSET CHANGED FROM -9 TO -12
OFFSET CHANGED FROM -12 TO -12
OFFSET CHANGED FROM -12 TO -6
OFFSET CHANGED FROM -6 TO -12
OFFSET CHANGED FROM -12 TO -12
OFFSET CHANGED FROM -12 TO -6
OFFSET CHANGED FROM -6 TO -12
OFFSET CHANGED FROM -12 TO -12
OFFSET CHANGED FROM -12 TO -12
OFFSET CHANGED FROM -12 TO -12
OFFSET CHANGED FROM -12 TO -12
OFFSET CHANGED FROM -12 TO -15
OFFSET CHANGED FROM -15 TO -12
OFFSET CHANGED FROM -12 TO -3
OFFSET CHANGED FROM -3 TO -3
OFFSET CHANGED FROM -3 TO -3
OFFSET CHANGED FROM -3 TO -6
OFFSET CHANGED FROM -6 TO -3
OFFSET CHANGED FROM -3 TO -9
OFFSET CHANGED FROM -9 TO -6
OFFSET CHANGED FROM -6 TO -9
OFFSET CHANGED FROM -9 TO -9
OFFSET CHANGED FROM -9 TO -6
OFFSET CHANGED FROM -6 TO -3
OFFSET CHANGED FROM -3 TO -6
OFFSET CHANGED FROM -6 TO -6
OFFSET CHANGED FROM -6 TO -6
OFFSET CHANGED FROM -6 TO -6
OFFSET CHANGED FROM -6 TO -6
OFFSET CHANGED FROM -6 TO -6
OFFSET CHANGED FROM -6 TO -15
OFFSET CHANGED FROM -15 TO -15
OFFSET CHANGED FROM -15 TO -6
OFFSET CHANGED FROM -6 TO -6
OFFSET CHANGED FROM -6 TO -6
OFFSET CHANGED FROM -6 TO -6
OFFSET CHANGED FROM -6 TO -6
OFFSET CHANGED FROM -6 TO -6
OFFSET CHANGED FROM -6 TO -6
OFFSET CHANGED FROM -6 TO -9
OFFSET CHANGED FROM -9 TO -6
OFFSET CHANGED FROM -6 TO -6
OFFSET CHANGED FROM -6 TO -6
OFFSET CHANGED FROM -6 TO -9
OFFSET CHANGED FROM -9 TO -9
OFFSET CHANGED FROM -9 TO -9
OFFSET CHANGED FROM -9 TO -9
OFFSET CHANGED FROM -9 TO -6
OFFSET CHANGED FROM -6 TO -6
OFFSET CHANGED FROM -6 TO -6
OFFSET CHANGED FROM -6 TO -6
OFFSET CHANGED FROM -6 TO -6
OFFSET CHANGED FROM -6 TO -12
OFFSET CHANGED FROM -12 TO -6
OFFSET CHANGED FROM -6 TO -12
OFFSET CHANGED FROM -12 TO -9
OFFSET CHANGED FROM -9 TO -6
OFFSET CHANGED FROM -6 TO -12
OFFSET CHANGED FROM -12 TO -6
OFFSET CHANGED FROM -6 TO -12
OFFSET CHANGED FROM -12 TO -12
OFFSET CHANGED FROM -12 TO -9
OFFSET CHANGED FROM -9 TO -6
OFFSET CHANGED FROM -6 TO -12
OFFSET CHANGED FROM -12 TO -12
OFFSET CHANGED FROM -12 TO -6
OFFSET CHANGED FROM -6 TO -9
OFFSET CHANGED FROM -9 TO -9
OFFSET CHANGED FROM -9 TO -6
OFFSET CHANGED FROM -6 TO -6
OFFSET CHANGED FROM -6 TO -6
OFFSET CHANGED FROM -6 TO -6
OFFSET CHANGED FROM -6 TO -6
OFFSET CHANGED FROM -6 TO -9
OFFSET CHANGED FROM -9 TO -6
OFFSET CHANGED FROM -6 TO -12
OFFSET CHANGED FROM -12 TO -12
OFFSET CHANGED FROM -12 TO -6
OFFSET CHANGED FROM -6 TO -12
OFFSET CHANGED FROM -12 TO -12
OFFSET CHANGED FROM -12 TO -9
OFFSET CHANGED FROM -9 TO -9
OFFSET CHANGED FROM -9 TO -9
OFFSET CHANGED FROM -9 TO -6
OFFSET CHANGED FROM -6 TO -6
OFFSET CHANGED FROM -6 TO -6
OFFSET CHANGED FROM -6 TO -6
OFFSET CHANGED FROM -6 TO -6
OFFSET CHANGED FROM -6 TO -6
OFFSET CHANGED FROM -6 TO -9
OFFSET CHANGED FROM -9 TO -18
OFFSET CHANGED FROM -18 TO -18
OFFSET CHANGED FROM -18 TO -12
OFFSET CHANGED FROM -12 TO -12
OFFSET CHANGED FROM -12 TO -12
OFFSET CHANGED FROM -12 TO -6
OFFSET CHANGED FROM -6 TO -15
OFFSET CHANGED FROM -15 TO -12
OFFSET CHANGED FROM -12 TO -6
OFFSET CHANGED FROM -6 TO -12
OFFSET CHANGED FROM -12 TO -12
OFFSET CHANGED FROM -12 TO -9
OFFSET CHANGED FROM -9 TO -6
OFFSET CHANGED FROM -6 TO -12
OFFSET CHANGED FROM -12 TO -12
OFFSET CHANGED FROM -12 TO -6
OFFSET CHANGED FROM -6 TO -12
OFFSET CHANGED FROM -12 TO -12
OFFSET CHANGED FROM -12 TO -6
OFFSET CHANGED FROM -6 TO -12
OFFSET CHANGED FROM -12 TO -6
OFFSET CHANGED FROM -6 TO -6
OFFSET CHANGED FROM -6 TO -6
OFFSET CHANGED FROM -6 TO -9
OFFSET CHANGED FROM -9 TO -6
OFFSET CHANGED FROM -6 TO -12
OFFSET CHANGED FROM -12 TO -12
OFFSET CHANGED FROM -12 TO -6
OFFSET CHANGED FROM -6 TO -6
OFFSET CHANGED FROM -6 TO -6
OFFSET CHANGED FROM -6 TO -6
OFFSET CHANGED FROM -6 TO -9
OFFSET CHANGED FROM -9 TO -6
OFFSET CHANGED FROM -6 TO -15
OFFSET CHANGED FROM -15 TO -12
OFFSET CHANGED FROM -12 TO -6
OFFSET CHANGED FROM -6 TO -9
OFFSET CHANGED FROM -9 TO -6
OFFSET CHANGED FROM -6 TO -6
OFFSET CHANGED FROM -6 TO -12
OFFSET CHANGED FROM -12 TO -12
OFFSET CHANGED FROM -12 TO -6
OFFSET CHANGED FROM -6 TO -12
OFFSET CHANGED FROM -12 TO -12
OFFSET CHANGED FROM -12 TO -6
OFFSET CHANGED FROM -6 TO -15
OFFSET CHANGED FROM -15 TO -12
OFFSET CHANGED FROM -12 TO -12
OFFSET CHANGED FROM -12 TO -9
OFFSET CHANGED FROM -9 TO -6
OFFSET CHANGED FROM -6 TO -6
OFFSET CHANGED FROM -6 TO -6
OFFSET CHANGED FROM -6 TO -6
OFFSET CHANGED FROM -6 TO -6
OFFSET CHANGED FROM -6 TO -6
OFFSET CHANGED FROM -6 TO -9
OFFSET CHANGED FROM -9 TO -6
OFFSET CHANGED FROM -6 TO -6
OFFSET CHANGED FROM -6 TO -6
OFFSET CHANGED FROM -6 TO -9
OFFSET CHANGED FROM -9 TO -6
OFFSET CHANGED FROM -6 TO -12
OFFSET CHANGED FROM -12 TO -9
OFFSET CHANGED FROM -9 TO -6
OFFSET CHANGED FROM -6 TO -12
OFFSET CHANGED FROM -12 TO -9
OFFSET CHANGED FROM -9 TO -9
OFFSET CHANGED FROM -9 TO -12
OFFSET CHANGED FROM -12 TO -9
OFFSET CHANGED FROM -9 TO -9
OFFSET CHANGED FROM -9 TO -9
OFFSET CHANGED FROM -9 TO -6
PREFETCHING INTO L2 w/ PREFETCH SCORE 31 (MSHR OCC = 29)
PREFETCHING INTO L2 w/ PREFETCH SCORE 31 (MSHR OCC = 29)
PREFETCHING INTO L2 w/ PREFETCH SCORE 31 (MSHR OCC = 28)
OFFSET CHANGED FROM -6 TO -6
OFFSET CHANGED FROM -6 TO -6
OFFSET CHANGED FROM -6 TO -9
OFFSET CHANGED FROM -9 TO -9
OFFSET CHANGED FROM -9 TO -6
OFFSET CHANGED FROM -6 TO -9
OFFSET CHANGED FROM -9 TO -9
OFFSET CHANGED FROM -9 TO -12
OFFSET CHANGED FROM -12 TO -6
OFFSET CHANGED FROM -6 TO -12
OFFSET CHANGED FROM -12 TO -12
OFFSET CHANGED FROM -12 TO -12
OFFSET CHANGED FROM -12 TO -12
OFFSET CHANGED FROM -12 TO -12
OFFSET CHANGED FROM -12 TO -9
OFFSET CHANGED FROM -9 TO -6
OFFSET CHANGED FROM -6 TO -9
OFFSET CHANGED FROM -9 TO -9
OFFSET CHANGED FROM -9 TO -9
OFFSET CHANGED FROM -9 TO -15
OFFSET CHANGED FROM -15 TO -12
OFFSET CHANGED FROM -12 TO -9
OFFSET CHANGED FROM -9 TO -9
OFFSET CHANGED FROM -9 TO -6
OFFSET CHANGED FROM -6 TO -12
OFFSET CHANGED FROM -12 TO -12
OFFSET CHANGED FROM -12 TO -6
OFFSET CHANGED FROM -6 TO -6
OFFSET CHANGED FROM -6 TO -6
OFFSET CHANGED FROM -6 TO -15
OFFSET CHANGED FROM -15 TO -12
Heartbeat CPU 0 instructions: 70000002 cycles: 68861241 heartbeat IPC: 0.557942 cumulative IPC: 0.417037 (Simulation time: 0 hr 3 min 47 sec) 
OFFSET CHANGED FROM -12 TO -9
OFFSET CHANGED FROM -9 TO -15
OFFSET CHANGED FROM -15 TO -15
OFFSET CHANGED FROM -15 TO -6
OFFSET CHANGED FROM -6 TO -9
OFFSET CHANGED FROM -9 TO -9
OFFSET CHANGED FROM -9 TO -6
OFFSET CHANGED FROM -6 TO -6
OFFSET CHANGED FROM -6 TO -9
OFFSET CHANGED FROM -9 TO -9
OFFSET CHANGED FROM -9 TO -9
OFFSET CHANGED FROM -9 TO -9
OFFSET CHANGED FROM -9 TO -9
OFFSET CHANGED FROM -9 TO -6
OFFSET CHANGED FROM -6 TO -9
OFFSET CHANGED FROM -9 TO -9
OFFSET CHANGED FROM -9 TO -9
OFFSET CHANGED FROM -9 TO -6
OFFSET CHANGED FROM -6 TO -9
OFFSET CHANGED FROM -9 TO -6
OFFSET CHANGED FROM -6 TO -6
OFFSET CHANGED FROM -6 TO -15
OFFSET CHANGED FROM -15 TO -18
OFFSET CHANGED FROM -18 TO -15
OFFSET CHANGED FROM -15 TO -12
OFFSET CHANGED FROM -12 TO -6
OFFSET CHANGED FROM -6 TO -15
OFFSET CHANGED FROM -15 TO -9
OFFSET CHANGED FROM -9 TO -9
OFFSET CHANGED FROM -9 TO -6
OFFSET CHANGED FROM -6 TO -9
OFFSET CHANGED FROM -9 TO -6
OFFSET CHANGED FROM -6 TO -6
OFFSET CHANGED FROM -6 TO -6
OFFSET CHANGED FROM -6 TO -9
OFFSET CHANGED FROM -9 TO -6
OFFSET CHANGED FROM -6 TO -15
OFFSET CHANGED FROM -15 TO -12
OFFSET CHANGED FROM -12 TO -6
OFFSET CHANGED FROM -6 TO -6
OFFSET CHANGED FROM -6 TO -6
OFFSET CHANGED FROM -6 TO -9
OFFSET CHANGED FROM -9 TO -12
OFFSET CHANGED FROM -12 TO -6
OFFSET CHANGED FROM -6 TO -6
OFFSET CHANGED FROM -6 TO -9
OFFSET CHANGED FROM -9 TO -9
OFFSET CHANGED FROM -9 TO -6
OFFSET CHANGED FROM -6 TO -12
OFFSET CHANGED FROM -12 TO -12
OFFSET CHANGED FROM -12 TO -6
OFFSET CHANGED FROM -6 TO -12
OFFSET CHANGED FROM -12 TO -12
OFFSET CHANGED FROM -12 TO -6
OFFSET CHANGED FROM -6 TO -6
OFFSET CHANGED FROM -6 TO -12
OFFSET CHANGED FROM -12 TO -6
OFFSET CHANGED FROM -6 TO -12
OFFSET CHANGED FROM -12 TO -12
OFFSET CHANGED FROM -12 TO -9
OFFSET CHANGED FROM -9 TO -18
OFFSET CHANGED FROM -18 TO -12
OFFSET CHANGED FROM -12 TO -12
PREFETCHING INTO L2 w/ PREFETCH SCORE 31 (MSHR OCC = 28)
OFFSET CHANGED FROM -12 TO -6
OFFSET CHANGED FROM -6 TO -15
PREFETCHING INTO L2 w/ PREFETCH SCORE 31 (MSHR OCC = 28)
OFFSET CHANGED FROM -15 TO -15
OFFSET CHANGED FROM -15 TO -15
OFFSET CHANGED FROM -15 TO -15
OFFSET CHANGED FROM -15 TO -15
OFFSET CHANGED FROM -15 TO -15
OFFSET CHANGED FROM -15 TO -9
OFFSET CHANGED FROM -9 TO -6
OFFSET CHANGED FROM -6 TO -9
OFFSET CHANGED FROM -9 TO -6
OFFSET CHANGED FROM -6 TO -6
OFFSET CHANGED FROM -6 TO -9
OFFSET CHANGED FROM -9 TO -9
OFFSET CHANGED FROM -9 TO -9
OFFSET CHANGED FROM -9 TO -15
OFFSET CHANGED FROM -15 TO -15
OFFSET CHANGED FROM -15 TO -15
OFFSET CHANGED FROM -15 TO -9
OFFSET CHANGED FROM -9 TO -15
OFFSET CHANGED FROM -15 TO -6
OFFSET CHANGED FROM -6 TO -6
OFFSET CHANGED FROM -6 TO -6
OFFSET CHANGED FROM -6 TO -9
OFFSET CHANGED FROM -9 TO -6
OFFSET CHANGED FROM -6 TO -12
OFFSET CHANGED FROM -12 TO -12
OFFSET CHANGED FROM -12 TO -6
OFFSET CHANGED FROM -6 TO -12
OFFSET CHANGED FROM -12 TO -12
OFFSET CHANGED FROM -12 TO -12
OFFSET CHANGED FROM -12 TO -9
OFFSET CHANGED FROM -9 TO -6
OFFSET CHANGED FROM -6 TO -6
OFFSET CHANGED FROM -6 TO -9
OFFSET CHANGED FROM -9 TO -6
OFFSET CHANGED FROM -6 TO -6
OFFSET CHANGED FROM -6 TO -9
OFFSET CHANGED FROM -9 TO -9
OFFSET CHANGED FROM -9 TO -6
OFFSET CHANGED FROM -6 TO -6
OFFSET CHANGED FROM -6 TO -9
OFFSET CHANGED FROM -9 TO -6
OFFSET CHANGED FROM -6 TO -6
OFFSET CHANGED FROM -6 TO -6
OFFSET CHANGED FROM -6 TO -6
OFFSET CHANGED FROM -6 TO -9
OFFSET CHANGED FROM -9 TO -9
OFFSET CHANGED FROM -9 TO -6
OFFSET CHANGED FROM -6 TO -6
OFFSET CHANGED FROM -6 TO -6
OFFSET CHANGED FROM -6 TO -9
OFFSET CHANGED FROM -9 TO -9
OFFSET CHANGED FROM -9 TO -6
OFFSET CHANGED FROM -6 TO -6
OFFSET CHANGED FROM -6 TO -6
OFFSET CHANGED FROM -6 TO -9
OFFSET CHANGED FROM -9 TO -9
OFFSET CHANGED FROM -9 TO -12
OFFSET CHANGED FROM -12 TO -12
OFFSET CHANGED FROM -12 TO -12
OFFSET CHANGED FROM -12 TO -12
OFFSET CHANGED FROM -12 TO -6
OFFSET CHANGED FROM -6 TO -12
OFFSET CHANGED FROM -12 TO -12
OFFSET CHANGED FROM -12 TO -12
OFFSET CHANGED FROM -12 TO -6
OFFSET CHANGED FROM -6 TO -9
OFFSET CHANGED FROM -9 TO -6
OFFSET CHANGED FROM -6 TO -6
OFFSET CHANGED FROM -6 TO -12
OFFSET CHANGED FROM -12 TO -12
OFFSET CHANGED FROM -12 TO -9
OFFSET CHANGED FROM -9 TO -9
OFFSET CHANGED FROM -9 TO -9
OFFSET CHANGED FROM -9 TO -6
OFFSET CHANGED FROM -6 TO -6
OFFSET CHANGED FROM -6 TO -6
OFFSET CHANGED FROM -6 TO -6
OFFSET CHANGED FROM -6 TO -6
OFFSET CHANGED FROM -6 TO -6
OFFSET CHANGED FROM -6 TO -6
OFFSET CHANGED FROM -6 TO -6
OFFSET CHANGED FROM -6 TO -6
OFFSET CHANGED FROM -6 TO -6
OFFSET CHANGED FROM -6 TO -12
OFFSET CHANGED FROM -12 TO -12
OFFSET CHANGED FROM -12 TO -12
OFFSET CHANGED FROM -12 TO -6
OFFSET CHANGED FROM -6 TO -6
OFFSET CHANGED FROM -6 TO -12
OFFSET CHANGED FROM -12 TO -6
OFFSET CHANGED FROM -6 TO -6
OFFSET CHANGED FROM -6 TO -15
OFFSET CHANGED FROM -15 TO -15
OFFSET CHANGED FROM -15 TO -6
OFFSET CHANGED FROM -6 TO -6
OFFSET CHANGED FROM -6 TO -12
OFFSET CHANGED FROM -12 TO -12
OFFSET CHANGED FROM -12 TO -6
OFFSET CHANGED FROM -6 TO -15
OFFSET CHANGED FROM -15 TO -15
OFFSET CHANGED FROM -15 TO -6
OFFSET CHANGED FROM -6 TO -12
OFFSET CHANGED FROM -12 TO -12
OFFSET CHANGED FROM -12 TO -15
OFFSET CHANGED FROM -15 TO -12
OFFSET CHANGED FROM -12 TO -9
OFFSET CHANGED FROM -9 TO -15
OFFSET CHANGED FROM -15 TO -9
OFFSET CHANGED FROM -9 TO -6
OFFSET CHANGED FROM -6 TO -6
OFFSET CHANGED FROM -6 TO -9
OFFSET CHANGED FROM -9 TO -9
OFFSET CHANGED FROM -9 TO -6
OFFSET CHANGED FROM -6 TO -6
OFFSET CHANGED FROM -6 TO -6
OFFSET CHANGED FROM -6 TO -6
OFFSET CHANGED FROM -6 TO -6
OFFSET CHANGED FROM -6 TO -6
OFFSET CHANGED FROM -6 TO -6
OFFSET CHANGED FROM -6 TO -6
OFFSET CHANGED FROM -6 TO -9
OFFSET CHANGED FROM -9 TO -9
OFFSET CHANGED FROM -9 TO -9
OFFSET CHANGED FROM -9 TO -9
OFFSET CHANGED FROM -9 TO -6
OFFSET CHANGED FROM -6 TO -6
OFFSET CHANGED FROM -6 TO -9
OFFSET CHANGED FROM -9 TO -6
OFFSET CHANGED FROM -6 TO -6
OFFSET CHANGED FROM -6 TO -6
OFFSET CHANGED FROM -6 TO -6
OFFSET CHANGED FROM -6 TO -6
OFFSET CHANGED FROM -6 TO -6
OFFSET CHANGED FROM -6 TO -12
OFFSET CHANGED FROM -12 TO -6
OFFSET CHANGED FROM -6 TO -6
OFFSET CHANGED FROM -6 TO -6
OFFSET CHANGED FROM -6 TO -6
OFFSET CHANGED FROM -6 TO -6
OFFSET CHANGED FROM -6 TO -15
OFFSET CHANGED FROM -15 TO -12
OFFSET CHANGED FROM -12 TO -6
OFFSET CHANGED FROM -6 TO -6
OFFSET CHANGED FROM -6 TO -9
OFFSET CHANGED FROM -9 TO -9
OFFSET CHANGED FROM -9 TO -6
OFFSET CHANGED FROM -6 TO -9
OFFSET CHANGED FROM -9 TO -12
OFFSET CHANGED FROM -12 TO -12
OFFSET CHANGED FROM -12 TO -6
OFFSET CHANGED FROM -6 TO -6
OFFSET CHANGED FROM -6 TO -6
OFFSET CHANGED FROM -6 TO -12
OFFSET CHANGED FROM -12 TO -12
OFFSET CHANGED FROM -12 TO -6
OFFSET CHANGED FROM -6 TO -12
OFFSET CHANGED FROM -12 TO -12
OFFSET CHANGED FROM -12 TO -6
OFFSET CHANGED FROM -6 TO -6
OFFSET CHANGED FROM -6 TO -9
OFFSET CHANGED FROM -9 TO -6
OFFSET CHANGED FROM -6 TO -6
OFFSET CHANGED FROM -6 TO -15
OFFSET CHANGED FROM -15 TO -12
OFFSET CHANGED FROM -12 TO -6
OFFSET CHANGED FROM -6 TO -6
OFFSET CHANGED FROM -6 TO -9
OFFSET CHANGED FROM -9 TO -6
OFFSET CHANGED FROM -6 TO -12
OFFSET CHANGED FROM -12 TO -12
OFFSET CHANGED FROM -12 TO -6
OFFSET CHANGED FROM -6 TO -6
OFFSET CHANGED FROM -6 TO -6
OFFSET CHANGED FROM -6 TO -6
OFFSET CHANGED FROM -6 TO -6
OFFSET CHANGED FROM -6 TO -6
OFFSET CHANGED FROM -6 TO -9
OFFSET CHANGED FROM -9 TO -18
OFFSET CHANGED FROM -18 TO -18
OFFSET CHANGED FROM -18 TO -12
OFFSET CHANGED FROM -12 TO -12
OFFSET CHANGED FROM -12 TO -12
OFFSET CHANGED FROM -12 TO -6
OFFSET CHANGED FROM -6 TO -12
OFFSET CHANGED FROM -12 TO -12
OFFSET CHANGED FROM -12 TO -6
OFFSET CHANGED FROM -6 TO -6
OFFSET CHANGED FROM -6 TO -6
OFFSET CHANGED FROM -6 TO -9
OFFSET CHANGED FROM -9 TO -9
OFFSET CHANGED FROM -9 TO -6
OFFSET CHANGED FROM -6 TO -12
OFFSET CHANGED FROM -12 TO -12
OFFSET CHANGED FROM -12 TO -9
OFFSET CHANGED FROM -9 TO -6
OFFSET CHANGED FROM -6 TO -9
OFFSET CHANGED FROM -9 TO -15
OFFSET CHANGED FROM -15 TO -15
OFFSET CHANGED FROM -15 TO -12
OFFSET CHANGED FROM -12 TO -15
OFFSET CHANGED FROM -15 TO -15
OFFSET CHANGED FROM -15 TO -6
OFFSET CHANGED FROM -6 TO -6
OFFSET CHANGED FROM -6 TO -9
OFFSET CHANGED FROM -9 TO -9
OFFSET CHANGED FROM -9 TO -6
OFFSET CHANGED FROM -6 TO -15
OFFSET CHANGED FROM -15 TO -12
OFFSET CHANGED FROM -12 TO -6
OFFSET CHANGED FROM -6 TO -12
OFFSET CHANGED FROM -12 TO -12
OFFSET CHANGED FROM -12 TO -12
OFFSET CHANGED FROM -12 TO -6
OFFSET CHANGED FROM -6 TO -12
OFFSET CHANGED FROM -12 TO -12
OFFSET CHANGED FROM -12 TO -6
OFFSET CHANGED FROM -6 TO -9
OFFSET CHANGED FROM -9 TO -9
OFFSET CHANGED FROM -9 TO -6
OFFSET CHANGED FROM -6 TO -6
OFFSET CHANGED FROM -6 TO -9
OFFSET CHANGED FROM -9 TO -9
OFFSET CHANGED FROM -9 TO -9
OFFSET CHANGED FROM -9 TO -15
OFFSET CHANGED FROM -15 TO -6
OFFSET CHANGED FROM -6 TO -6
OFFSET CHANGED FROM -6 TO -9
OFFSET CHANGED FROM -9 TO -6
OFFSET CHANGED FROM -6 TO -15
OFFSET CHANGED FROM -15 TO -15
OFFSET CHANGED FROM -15 TO -6
OFFSET CHANGED FROM -6 TO -6
OFFSET CHANGED FROM -6 TO -9
OFFSET CHANGED FROM -9 TO -6
OFFSET CHANGED FROM -6 TO -6
OFFSET CHANGED FROM -6 TO -15
OFFSET CHANGED FROM -15 TO -15
OFFSET CHANGED FROM -15 TO -9
OFFSET CHANGED FROM -9 TO -6
OFFSET CHANGED FROM -6 TO -6
OFFSET CHANGED FROM -6 TO -12
OFFSET CHANGED FROM -12 TO -6
OFFSET CHANGED FROM -6 TO -15
OFFSET CHANGED FROM -15 TO -12
OFFSET CHANGED FROM -12 TO -12
OFFSET CHANGED FROM -12 TO -6
OFFSET CHANGED FROM -6 TO -6
OFFSET CHANGED FROM -6 TO -15
OFFSET CHANGED FROM -15 TO -12
OFFSET CHANGED FROM -12 TO -15
OFFSET CHANGED FROM -15 TO -18
OFFSET CHANGED FROM -18 TO -9
OFFSET CHANGED FROM -9 TO -6
OFFSET CHANGED FROM -6 TO -9
OFFSET CHANGED FROM -9 TO -6
[...]
OFFSET CHANGED FROM -12 TO -9
OFFSET CHANGED FROM -9 TO -6
OFFSET CHANGED FROM -6 TO -15
OFFSET CHANGED FROM -15 TO -9
OFFSET CHANGED FROM -9 TO -9
OFFSET CHANGED FROM -9 TO -12
OFFSET CHANGED FROM -12 TO -12
OFFSET CHANGED FROM -12 TO -9
OFFSET CHANGED FROM -9 TO -6
OFFSET CHANGED FROM -6 TO -9
OFFSET CHANGED FROM -9 TO -12
OFFSET CHANGED FROM -12 TO -6
OFFSET CHANGED FROM -6 TO -6
OFFSET CHANGED FROM -6 TO -6
OFFSET CHANGED FROM -6 TO -6
OFFSET CHANGED FROM -6 TO -12
OFFSET CHANGED FROM -12 TO -9
OFFSET CHANGED FROM -9 TO -6
OFFSET CHANGED FROM -6 TO -9
OFFSET CHANGED FROM -9 TO -9
OFFSET CHANGED FROM -9 TO -6
OFFSET CHANGED FROM -6 TO -15
OFFSET CHANGED FROM -15 TO -12
OFFSET CHANGED FROM -12 TO -6
OFFSET CHANGED FROM -6 TO -12
OFFSET CHANGED FROM -12 TO -12
OFFSET CHANGED FROM -12 TO -6
OFFSET CHANGED FROM -6 TO -12
OFFSET CHANGED FROM -12 TO -12
OFFSET CHANGED FROM -12 TO -9
OFFSET CHANGED FROM -9 TO -6
OFFSET CHANGED FROM -6 TO -12
OFFSET CHANGED FROM -12 TO -12
OFFSET CHANGED FROM -12 TO -6
OFFSET CHANGED FROM -6 TO -12
OFFSET CHANGED FROM -12 TO -12
OFFSET CHANGED FROM -12 TO -6
OFFSET CHANGED FROM -6 TO -9
OFFSET CHANGED FROM -9 TO -12
OFFSET CHANGED FROM -12 TO -6
OFFSET CHANGED FROM -6 TO -6
OFFSET CHANGED FROM -6 TO -12
OFFSET CHANGED FROM -12 TO -6
OFFSET CHANGED FROM -6 TO -9
OFFSET CHANGED FROM -9 TO -6
OFFSET CHANGED FROM -6 TO -15
OFFSET CHANGED FROM -15 TO -9
OFFSET CHANGED FROM -9 TO -6
OFFSET CHANGED FROM -6 TO -9
OFFSET CHANGED FROM -9 TO -6
OFFSET CHANGED FROM -6 TO -6
OFFSET CHANGED FROM -6 TO -6
OFFSET CHANGED FROM -6 TO -9
OFFSET CHANGED FROM -9 TO -6
OFFSET CHANGED FROM -6 TO -6
OFFSET CHANGED FROM -6 TO -6
OFFSET CHANGED FROM -6 TO -6
OFFSET CHANGED FROM -6 TO -6
OFFSET CHANGED FROM -6 TO -6
OFFSET CHANGED FROM -6 TO -6
OFFSET CHANGED FROM -6 TO -6
OFFSET CHANGED FROM -6 TO -9
OFFSET CHANGED FROM -9 TO -6
OFFSET CHANGED FROM -6 TO -15
OFFSET CHANGED FROM -15 TO -15
OFFSET CHANGED FROM -15 TO -12
OFFSET CHANGED FROM -12 TO -6
OFFSET CHANGED FROM -6 TO -15
OFFSET CHANGED FROM -15 TO -6
OFFSET CHANGED FROM -6 TO -6
OFFSET CHANGED FROM -6 TO -6
OFFSET CHANGED FROM -6 TO -15
OFFSET CHANGED FROM -15 TO -9
OFFSET CHANGED FROM -9 TO -6
OFFSET CHANGED FROM -6 TO -6
OFFSET CHANGED FROM -6 TO -6
OFFSET CHANGED FROM -6 TO -6
OFFSET CHANGED FROM -6 TO -6
OFFSET CHANGED FROM -6 TO -6
OFFSET CHANGED FROM -6 TO -6
OFFSET CHANGED FROM -6 TO -6
OFFSET CHANGED FROM -6 TO -6
OFFSET CHANGED FROM -6 TO -6
OFFSET CHANGED FROM -6 TO -6
OFFSET CHANGED FROM -6 TO -6
OFFSET CHANGED FROM -6 TO -15
OFFSET CHANGED FROM -15 TO -9
OFFSET CHANGED FROM -9 TO -6
OFFSET CHANGED FROM -6 TO -15
OFFSET CHANGED FROM -15 TO -12
OFFSET CHANGED FROM -12 TO -9
OFFSET CHANGED FROM -9 TO -12
OFFSET CHANGED FROM -12 TO -9
OFFSET CHANGED FROM -9 TO -6
OFFSET CHANGED FROM -6 TO -6
OFFSET CHANGED FROM -6 TO -6
OFFSET CHANGED FROM -6 TO -12
OFFSET CHANGED FROM -12 TO -12
OFFSET CHANGED FROM -12 TO -9
OFFSET CHANGED FROM -9 TO -9
OFFSET CHANGED FROM -9 TO -12
OFFSET CHANGED FROM -12 TO -9
OFFSET CHANGED FROM -9 TO -6
OFFSET CHANGED FROM -6 TO -6
OFFSET CHANGED FROM -6 TO -6
OFFSET CHANGED FROM -6 TO -9
OFFSET CHANGED FROM -9 TO -9
OFFSET CHANGED FROM -9 TO -6
OFFSET CHANGED FROM -6 TO -15
OFFSET CHANGED FROM -15 TO -15
OFFSET CHANGED FROM -15 TO -15
OFFSET CHANGED FROM -15 TO -15
OFFSET CHANGED FROM -15 TO -9
OFFSET CHANGED FROM -9 TO -6
OFFSET CHANGED FROM -6 TO -6
OFFSET CHANGED FROM -6 TO -9
OFFSET CHANGED FROM -9 TO -6
OFFSET CHANGED FROM -6 TO -6
OFFSET CHANGED FROM -6 TO -9
OFFSET CHANGED FROM -9 TO -12
OFFSET CHANGED FROM -12 TO -12
OFFSET CHANGED FROM -12 TO -6
OFFSET CHANGED FROM -6 TO -6
OFFSET CHANGED FROM -6 TO -12
OFFSET CHANGED FROM -12 TO -9
OFFSET CHANGED FROM -9 TO -6
OFFSET CHANGED FROM -6 TO -6
OFFSET CHANGED FROM -6 TO -9
OFFSET CHANGED FROM -9 TO -9
OFFSET CHANGED FROM -9 TO -6
OFFSET CHANGED FROM -6 TO -6
OFFSET CHANGED FROM -6 TO -12
OFFSET CHANGED FROM -12 TO -12
OFFSET CHANGED FROM -12 TO -6
OFFSET CHANGED FROM -6 TO -12
OFFSET CHANGED FROM -12 TO -12
OFFSET CHANGED FROM -12 TO -6
OFFSET CHANGED FROM -6 TO -12
OFFSET CHANGED FROM -12 TO -18
OFFSET CHANGED FROM -18 TO -6
OFFSET CHANGED FROM -6 TO -9
OFFSET CHANGED FROM -9 TO -15
OFFSET CHANGED FROM -15 TO -3
OFFSET CHANGED FROM -3 TO -3
OFFSET CHANGED FROM -3 TO -3
OFFSET CHANGED FROM -3 TO -3
OFFSET CHANGED FROM -3 TO -3
Heartbeat CPU 0 instructions: 280000000 cycles: 544518732 heartbeat IPC: 0.327812 cumulative IPC: 0.439254 (Simulation time: 0 hr 17 min 5 sec) 
OFFSET CHANGED FROM -3 TO -3
OFFSET CHANGED FROM -3 TO -3
OFFSET CHANGED FROM -3 TO -6
OFFSET CHANGED FROM -6 TO -9
OFFSET CHANGED FROM -9 TO -9
OFFSET CHANGED FROM -9 TO -6
OFFSET CHANGED FROM -6 TO -6
OFFSET CHANGED FROM -6 TO -6
OFFSET CHANGED FROM -6 TO -6
OFFSET CHANGED FROM -6 TO -6
OFFSET CHANGED FROM -6 TO -15
OFFSET CHANGED FROM -15 TO -6
OFFSET CHANGED FROM -6 TO -6
OFFSET CHANGED FROM -6 TO -6
OFFSET CHANGED FROM -6 TO -3
OFFSET CHANGED FROM -3 TO -9
OFFSET CHANGED FROM -9 TO -18
OFFSET CHANGED FROM -18 TO -6
OFFSET CHANGED FROM -6 TO -6
OFFSET CHANGED FROM -6 TO -6
OFFSET CHANGED FROM -6 TO -12
OFFSET CHANGED FROM -12 TO -6
OFFSET CHANGED FROM -6 TO -6
OFFSET CHANGED FROM -6 TO -6
OFFSET CHANGED FROM -6 TO -12
OFFSET CHANGED FROM -12 TO -12
OFFSET CHANGED FROM -12 TO -15
OFFSET CHANGED FROM -15 TO -15
OFFSET CHANGED FROM -15 TO -12
OFFSET CHANGED FROM -12 TO -6
OFFSET CHANGED FROM -6 TO -6
OFFSET CHANGED FROM -6 TO -6
OFFSET CHANGED FROM -6 TO -6
OFFSET CHANGED FROM -6 TO -9
OFFSET CHANGED FROM -9 TO -6
OFFSET CHANGED FROM -6 TO -9
OFFSET CHANGED FROM -9 TO -12
OFFSET CHANGED FROM -12 TO -6
OFFSET CHANGED FROM -6 TO -6
OFFSET CHANGED FROM -6 TO -6
OFFSET CHANGED FROM -6 TO -6
OFFSET CHANGED FROM -6 TO -15
OFFSET CHANGED FROM -15 TO -12
OFFSET CHANGED FROM -12 TO -12
OFFSET CHANGED FROM -12 TO -12
OFFSET CHANGED FROM -12 TO -15
OFFSET CHANGED FROM -15 TO -12
OFFSET CHANGED FROM -12 TO -9
OFFSET CHANGED FROM -9 TO -9
OFFSET CHANGED FROM -9 TO -12
OFFSET CHANGED FROM -12 TO -9
OFFSET CHANGED FROM -9 TO -12
OFFSET CHANGED FROM -12 TO -12
OFFSET CHANGED FROM -12 TO -3
OFFSET CHANGED FROM -3 TO -3
OFFSET CHANGED FROM -3 TO -9
OFFSET CHANGED FROM -9 TO -6
OFFSET CHANGED FROM -6 TO -6
OFFSET CHANGED FROM -6 TO -6
OFFSET CHANGED FROM -6 TO -6
OFFSET CHANGED FROM -6 TO -3
OFFSET CHANGED FROM -3 TO -6
OFFSET CHANGED FROM -6 TO -6
OFFSET CHANGED FROM -6 TO -9
OFFSET CHANGED FROM -9 TO -15
OFFSET CHANGED FROM -15 TO -15
OFFSET CHANGED FROM -15 TO -15
OFFSET CHANGED FROM -15 TO -6
OFFSET CHANGED FROM -6 TO -6
OFFSET CHANGED FROM -6 TO -12
OFFSET CHANGED FROM -12 TO -12
OFFSET CHANGED FROM -12 TO -12
OFFSET CHANGED FROM -12 TO -12
OFFSET CHANGED FROM -12 TO -9
PREFETCHING INTO L2 w/ PREFETCH SCORE 31 (MSHR OCC = 30)
OFFSET CHANGED FROM -9 TO -6
OFFSET CHANGED FROM -6 TO -6
OFFSET CHANGED FROM -6 TO -9
OFFSET CHANGED FROM -9 TO -12
OFFSET CHANGED FROM -12 TO -12
OFFSET CHANGED FROM -12 TO -15
OFFSET CHANGED FROM -15 TO -15
OFFSET CHANGED FROM -15 TO -12
OFFSET CHANGED FROM -12 TO -12
OFFSET CHANGED FROM -12 TO -6
OFFSET CHANGED FROM -6 TO -9
OFFSET CHANGED FROM -9 TO -12
OFFSET CHANGED FROM -12 TO -6
OFFSET CHANGED FROM -6 TO -6
OFFSET CHANGED FROM -6 TO -12
OFFSET CHANGED FROM -12 TO -6
OFFSET CHANGED FROM -6 TO -9
OFFSET CHANGED FROM -9 TO -9
OFFSET CHANGED FROM -9 TO -6
OFFSET CHANGED FROM -6 TO -12
OFFSET CHANGED FROM -12 TO -12
OFFSET CHANGED FROM -12 TO -15
OFFSET CHANGED FROM -15 TO -12
OFFSET CHANGED FROM -12 TO -3
Heartbeat CPU 0 instructions: 290000000 cycles: 557373321 heartbeat IPC: 0.777932 cumulative IPC: 0.447369 (Simulation time: 0 hr 17 min 34 sec) 
OFFSET CHANGED FROM -3 TO -3
OFFSET CHANGED FROM -3 TO -6
OFFSET CHANGED FROM -6 TO -3
OFFSET CHANGED FROM -3 TO -6
OFFSET CHANGED FROM -6 TO -3
OFFSET CHANGED FROM -3 TO -9
OFFSET CHANGED FROM -9 TO -3
OFFSET CHANGED FROM -3 TO -3
OFFSET CHANGED FROM -3 TO -9
OFFSET CHANGED FROM -9 TO -9
OFFSET CHANGED FROM -9 TO -6
OFFSET CHANGED FROM -6 TO -6
OFFSET CHANGED FROM -6 TO -9
OFFSET CHANGED FROM -9 TO -6
OFFSET CHANGED FROM -6 TO -6
OFFSET CHANGED FROM -6 TO -6
OFFSET CHANGED FROM -6 TO -6
OFFSET CHANGED FROM -6 TO -9
OFFSET CHANGED FROM -9 TO -6
OFFSET CHANGED FROM -6 TO -6
OFFSET CHANGED FROM -6 TO -12
OFFSET CHANGED FROM -12 TO -6
OFFSET CHANGED FROM -6 TO -6
OFFSET CHANGED FROM -6 TO -6
OFFSET CHANGED FROM -6 TO -6
OFFSET CHANGED FROM -6 TO -6
OFFSET CHANGED FROM -6 TO -9
OFFSET CHANGED FROM -9 TO -9
OFFSET CHANGED FROM -9 TO -6
OFFSET CHANGED FROM -6 TO -6
OFFSET CHANGED FROM -6 TO -9
OFFSET CHANGED FROM -9 TO -9
OFFSET CHANGED FROM -9 TO -9
OFFSET CHANGED FROM -9 TO -6
OFFSET CHANGED FROM -6 TO -9
OFFSET CHANGED FROM -9 TO -6
OFFSET CHANGED FROM -6 TO -6
OFFSET CHANGED FROM -6 TO -6
OFFSET CHANGED FROM -6 TO -6
OFFSET CHANGED FROM -6 TO -6
OFFSET CHANGED FROM -6 TO -6
OFFSET CHANGED FROM -6 TO -12
OFFSET CHANGED FROM -12 TO -12
OFFSET CHANGED FROM -12 TO -12
OFFSET CHANGED FROM -12 TO -6
OFFSET CHANGED FROM -6 TO -6
OFFSET CHANGED FROM -6 TO -6
OFFSET CHANGED FROM -6 TO -6
OFFSET CHANGED FROM -6 TO -6
OFFSET CHANGED FROM -6 TO -6
OFFSET CHANGED FROM -6 TO -9
OFFSET CHANGED FROM -9 TO -6
OFFSET CHANGED FROM -6 TO -9
OFFSET CHANGED FROM -9 TO -9
OFFSET CHANGED FROM -9 TO -6
OFFSET CHANGED FROM -6 TO -12
OFFSET CHANGED FROM -12 TO -6
OFFSET CHANGED FROM -6 TO -9
OFFSET CHANGED FROM -9 TO -9
OFFSET CHANGED FROM -9 TO -6
OFFSET CHANGED FROM -6 TO -6
OFFSET CHANGED FROM -6 TO -9
OFFSET CHANGED FROM -9 TO -9
OFFSET CHANGED FROM -9 TO -9
OFFSET CHANGED FROM -9 TO -9
OFFSET CHANGED FROM -9 TO -9
OFFSET CHANGED FROM -9 TO -6
OFFSET CHANGED FROM -6 TO -12
OFFSET CHANGED FROM -12 TO -12
OFFSET CHANGED FROM -12 TO -6
OFFSET CHANGED FROM -6 TO -6
OFFSET CHANGED FROM -6 TO -6
OFFSET CHANGED FROM -6 TO -6
OFFSET CHANGED FROM -6 TO -9
OFFSET CHANGED FROM -9 TO -6
OFFSET CHANGED FROM -6 TO -6
OFFSET CHANGED FROM -6 TO -12
OFFSET CHANGED FROM -12 TO -12
OFFSET CHANGED FROM -12 TO -6
OFFSET CHANGED FROM -6 TO -6
OFFSET CHANGED FROM -6 TO -12
OFFSET CHANGED FROM -12 TO -15
OFFSET CHANGED FROM -15 TO -12
OFFSET CHANGED FROM -12 TO -6
OFFSET CHANGED FROM -6 TO -12
OFFSET CHANGED FROM -12 TO -9
OFFSET CHANGED FROM -9 TO -6
OFFSET CHANGED FROM -6 TO -12
OFFSET CHANGED FROM -12 TO -9
OFFSET CHANGED FROM -9 TO -6
OFFSET CHANGED FROM -6 TO -9
OFFSET CHANGED FROM -9 TO -12
OFFSET CHANGED FROM -12 TO -6
OFFSET CHANGED FROM -6 TO -6
OFFSET CHANGED FROM -6 TO -6
OFFSET CHANGED FROM -6 TO -6
OFFSET CHANGED FROM -6 TO -6
OFFSET CHANGED FROM -6 TO -6
OFFSET CHANGED FROM -6 TO -6
OFFSET CHANGED FROM -6 TO -6
OFFSET CHANGED FROM -6 TO -9
OFFSET CHANGED FROM -9 TO -6
OFFSET CHANGED FROM -6 TO -6
OFFSET CHANGED FROM -6 TO -6
OFFSET CHANGED FROM -6 TO -6
OFFSET CHANGED FROM -6 TO -9
OFFSET CHANGED FROM -9 TO -6
OFFSET CHANGED FROM -6 TO -12
OFFSET CHANGED FROM -12 TO -18
OFFSET CHANGED FROM -18 TO -12
OFFSET CHANGED FROM -12 TO -12
OFFSET CHANGED FROM -12 TO -9
OFFSET CHANGED FROM -9 TO -6
OFFSET CHANGED FROM -6 TO -6
OFFSET CHANGED FROM -6 TO -3
OFFSET CHANGED FROM -3 TO -9
OFFSET CHANGED FROM -9 TO -12
OFFSET CHANGED FROM -12 TO -6
OFFSET CHANGED FROM -6 TO -6
OFFSET CHANGED FROM -6 TO -6
OFFSET CHANGED FROM -6 TO -6
OFFSET CHANGED FROM -6 TO -9
OFFSET CHANGED FROM -9 TO -9
OFFSET CHANGED FROM -9 TO -6
OFFSET CHANGED FROM -6 TO -9
OFFSET CHANGED FROM -9 TO -9
OFFSET CHANGED FROM -9 TO -9
OFFSET CHANGED FROM -9 TO -6
OFFSET CHANGED FROM -6 TO -6
OFFSET CHANGED FROM -6 TO -6
OFFSET CHANGED FROM -6 TO -12
OFFSET CHANGED FROM -12 TO -9
OFFSET CHANGED FROM -9 TO -6
OFFSET CHANGED FROM -6 TO -9
OFFSET CHANGED FROM -9 TO -9
OFFSET CHANGED FROM -9 TO -6
OFFSET CHANGED FROM -6 TO -6
OFFSET CHANGED FROM -6 TO -6
OFFSET CHANGED FROM -6 TO -6
OFFSET CHANGED FROM -6 TO -6
OFFSET CHANGED FROM -6 TO -6
OFFSET CHANGED FROM -6 TO -6
OFFSET CHANGED FROM -6 TO -6
OFFSET CHANGED FROM -6 TO -6
OFFSET CHANGED FROM -6 TO -6
OFFSET CHANGED FROM -6 TO -9
OFFSET CHANGED FROM -9 TO -6
OFFSET CHANGED FROM -6 TO -9
OFFSET CHANGED FROM -9 TO -9
OFFSET CHANGED FROM -9 TO -9
OFFSET CHANGED FROM -9 TO -15
OFFSET CHANGED FROM -15 TO -12
OFFSET CHANGED FROM -12 TO -9
OFFSET CHANGED FROM -9 TO -9
OFFSET CHANGED FROM -9 TO -6
OFFSET CHANGED FROM -6 TO -6
OFFSET CHANGED FROM -6 TO -6
OFFSET CHANGED FROM -6 TO -12
OFFSET CHANGED FROM -12 TO -9
OFFSET CHANGED FROM -9 TO -6
OFFSET CHANGED FROM -6 TO -9
OFFSET CHANGED FROM -9 TO -12
OFFSET CHANGED FROM -12 TO -6
OFFSET CHANGED FROM -6 TO -6
OFFSET CHANGED FROM -6 TO -9
OFFSET CHANGED FROM -9 TO -6
OFFSET CHANGED FROM -6 TO -6
OFFSET CHANGED FROM -6 TO -6
OFFSET CHANGED FROM -6 TO -6
OFFSET CHANGED FROM -6 TO -6
OFFSET CHANGED FROM -6 TO -6
OFFSET CHANGED FROM -6 TO -9
OFFSET CHANGED FROM -9 TO -9
OFFSET CHANGED FROM -9 TO -9
OFFSET CHANGED FROM -9 TO -6
OFFSET CHANGED FROM -6 TO -6
OFFSET CHANGED FROM -6 TO -12
OFFSET CHANGED FROM -12 TO -12
OFFSET CHANGED FROM -12 TO -9
OFFSET CHANGED FROM -9 TO -6
OFFSET CHANGED FROM -6 TO -12
OFFSET CHANGED FROM -12 TO -15
OFFSET CHANGED FROM -15 TO -15
OFFSET CHANGED FROM -15 TO -15
OFFSET CHANGED FROM -15 TO -18
OFFSET CHANGED FROM -18 TO -9
OFFSET CHANGED FROM -9 TO -9
OFFSET CHANGED FROM -9 TO -9
OFFSET CHANGED FROM -9 TO -6
OFFSET CHANGED FROM -6 TO -6
OFFSET CHANGED FROM -6 TO -6
OFFSET CHANGED FROM -6 TO -6
OFFSET CHANGED FROM -6 TO -9
OFFSET CHANGED FROM -9 TO -9
OFFSET CHANGED FROM -9 TO -6
OFFSET CHANGED FROM -6 TO -12
OFFSET CHANGED FROM -12 TO -12
OFFSET CHANGED FROM -12 TO -9
OFFSET CHANGED FROM -9 TO -6
OFFSET CHANGED FROM -6 TO -6
OFFSET CHANGED FROM -6 TO -6
OFFSET CHANGED FROM -6 TO -9
OFFSET CHANGED FROM -9 TO -9
OFFSET CHANGED FROM -9 TO -12
OFFSET CHANGED FROM -12 TO -12
OFFSET CHANGED FROM -12 TO -12
OFFSET CHANGED FROM -12 TO -15
OFFSET CHANGED FROM -15 TO -12
OFFSET CHANGED FROM -12 TO -6
OFFSET CHANGED FROM -6 TO -12
OFFSET CHANGED FROM -12 TO -12
OFFSET CHANGED FROM -12 TO -6
OFFSET CHANGED FROM -6 TO -12
OFFSET CHANGED FROM -12 TO -9
OFFSET CHANGED FROM -9 TO -6
OFFSET CHANGED FROM -6 TO -9
OFFSET CHANGED FROM -9 TO -6
OFFSET CHANGED FROM -6 TO -15
OFFSET CHANGED FROM -15 TO -9
OFFSET CHANGED FROM -9 TO -6
OFFSET CHANGED FROM -6 TO -12
OFFSET CHANGED FROM -12 TO -6
OFFSET CHANGED FROM -6 TO -12
OFFSET CHANGED FROM -12 TO -15
OFFSET CHANGED FROM -15 TO -9
OFFSET CHANGED FROM -9 TO -6
OFFSET CHANGED FROM -6 TO -6
OFFSET CHANGED FROM -6 TO -6
OFFSET CHANGED FROM -6 TO -6
OFFSET CHANGED FROM -6 TO -6
OFFSET CHANGED FROM -6 TO -6
OFFSET CHANGED FROM -6 TO -12
OFFSET CHANGED FROM -12 TO -6
OFFSET CHANGED FROM -6 TO -12
OFFSET CHANGED FROM -12 TO -9
OFFSET CHANGED FROM -9 TO -12
OFFSET CHANGED FROM -12 TO -12
OFFSET CHANGED FROM -12 TO -6
OFFSET CHANGED FROM -6 TO -12
OFFSET CHANGED FROM -12 TO -12
OFFSET CHANGED FROM -12 TO -15
OFFSET CHANGED FROM -15 TO -9
OFFSET CHANGED FROM -9 TO -9
OFFSET CHANGED FROM -9 TO -9
OFFSET CHANGED FROM -9 TO -6
OFFSET CHANGED FROM -6 TO -3
OFFSET CHANGED FROM -3 TO -3
OFFSET CHANGED FROM -3 TO -3
OFFSET CHANGED FROM -3 TO -6
OFFSET CHANGED FROM -6 TO -6
OFFSET CHANGED FROM -6 TO -12
OFFSET CHANGED FROM -12 TO -18
OFFSET CHANGED FROM -18 TO -12
OFFSET CHANGED FROM -12 TO -6
OFFSET CHANGED FROM -6 TO -9
OFFSET CHANGED FROM -9 TO -12
OFFSET CHANGED FROM -12 TO -12
OFFSET CHANGED FROM -12 TO -12
OFFSET CHANGED FROM -12 TO -6
OFFSET CHANGED FROM -6 TO -9
OFFSET CHANGED FROM -9 TO -12
OFFSET CHANGED FROM -12 TO -9
OFFSET CHANGED FROM -9 TO -6
OFFSET CHANGED FROM -6 TO -6
OFFSET CHANGED FROM -6 TO -9
OFFSET CHANGED FROM -9 TO -12
OFFSET CHANGED FROM -12 TO -6
OFFSET CHANGED FROM -6 TO -15
OFFSET CHANGED FROM -15 TO -15
OFFSET CHANGED FROM -15 TO -12
OFFSET CHANGED FROM -12 TO -9
OFFSET CHANGED FROM -9 TO -12
OFFSET CHANGED FROM -12 TO -12
OFFSET CHANGED FROM -12 TO -15
OFFSET CHANGED FROM -15 TO -6
OFFSET CHANGED FROM -6 TO -6
OFFSET CHANGED FROM -6 TO -6
OFFSET CHANGED FROM -6 TO -9
OFFSET CHANGED FROM -9 TO -6
OFFSET CHANGED FROM -6 TO -6
OFFSET CHANGED FROM -6 TO -9
OFFSET CHANGED FROM -9 TO -6
OFFSET CHANGED FROM -6 TO -6
OFFSET CHANGED FROM -6 TO -9
OFFSET CHANGED FROM -9 TO -9
OFFSET CHANGED FROM -9 TO -9
OFFSET CHANGED FROM -9 TO -15
OFFSET CHANGED FROM -15 TO -6
OFFSET CHANGED FROM -6 TO -6
OFFSET CHANGED FROM -6 TO -9
OFFSET CHANGED FROM -9 TO -9
OFFSET CHANGED FROM -9 TO -9
OFFSET CHANGED FROM -9 TO -6
OFFSET CHANGED FROM -6 TO -6
OFFSET CHANGED FROM -6 TO -6
OFFSET CHANGED FROM -6 TO -15
OFFSET CHANGED FROM -15 TO -12
OFFSET CHANGED FROM -12 TO -15
OFFSET CHANGED FROM -15 TO -12
OFFSET CHANGED FROM -12 TO -12
OFFSET CHANGED FROM -12 TO -6
OFFSET CHANGED FROM -6 TO -18
OFFSET CHANGED FROM -18 TO -12
OFFSET CHANGED FROM -12 TO -12
OFFSET CHANGED FROM -12 TO -18
OFFSET CHANGED FROM -18 TO -12
OFFSET CHANGED FROM -12 TO -15
OFFSET CHANGED FROM -15 TO -12
OFFSET CHANGED FROM -12 TO -6
OFFSET CHANGED FROM -6 TO -6
OFFSET CHANGED FROM -6 TO -9
OFFSET CHANGED FROM -9 TO -6
OFFSET CHANGED FROM -6 TO -9
OFFSET CHANGED FROM -9 TO -9
OFFSET CHANGED FROM -9 TO -6
OFFSET CHANGED FROM -6 TO -6
OFFSET CHANGED FROM -6 TO -9
Heartbeat CPU 0 instructions: 300000001 cycles: 579528966 heartbeat IPC: 0.451352 cumulative IPC: 0.447527 (Simulation time: 0 hr 18 min 11 sec) 
Finished CPU 0 instructions: 250000002 cycles: 558625106 cumulative IPC: 0.447527 (Simulation time: 0 hr 18 min 11 sec) 

ChampSim completed all CPUs

Region of Interest Statistics

CPU 0 cumulative IPC: 0.447527 instructions: 250000002 cycles: 558625106
L1D TOTAL     ACCESS:   90218229  HIT:   75717858  MISS:   14500371
L1D LOAD      ACCESS:   45855877  HIT:   31358839  MISS:   14497038
L1D RFO       ACCESS:   44362352  HIT:   44359019  MISS:       3333
L1D PREFETCH  ACCESS:          0  HIT:          0  MISS:          0
L1D WRITEBACK ACCESS:          0  HIT:          0  MISS:          0
L1D PREFETCH  REQUESTED:          0  ISSUED:          0  USEFUL:          0  USELESS:          0
L1D AVERAGE MISS LATENCY: 49.8261 cycles
L1I TOTAL     ACCESS:   52454317  HIT:   52454317  MISS:          0
L1I LOAD      ACCESS:   52454317  HIT:   52454317  MISS:          0
L1I RFO       ACCESS:          0  HIT:          0  MISS:          0
L1I PREFETCH  ACCESS:          0  HIT:          0  MISS:          0
L1I WRITEBACK ACCESS:          0  HIT:          0  MISS:          0
L1I PREFETCH  REQUESTED:          0  ISSUED:          0  USEFUL:          0  USELESS:          0
L1I AVERAGE MISS LATENCY: -nan cycles
L2C TOTAL     ACCESS:   26170271  HIT:   11142852  MISS:   15027419
L2C LOAD      ACCESS:   14496936  HIT:   10204430  MISS:    4292506
L2C RFO       ACCESS:       3333  HIT:       2507  MISS:        826
L2C PREFETCH  ACCESS:   11168695  HIT:     437135  MISS:   10731560
L2C WRITEBACK ACCESS:     501307  HIT:     498780  MISS:       2527
L2C PREFETCH  REQUESTED:   12441457  ISSUED:   12441457  USEFUL:   10115356  USELESS:     616348
L2C AVERAGE MISS LATENCY: 129.529 cycles
LLC TOTAL     ACCESS:   15457280  HIT:     462897  MISS:   14994383
LLC LOAD      ACCESS:    3025113  HIT:      12909  MISS:    3012204
LLC RFO       ACCESS:        809  HIT:        347  MISS:        462
LLC PREFETCH  ACCESS:   11999142  HIT:      20340  MISS:   11978802
LLC WRITEBACK ACCESS:     432216  HIT:     429301  MISS:       2915
LLC PREFETCH  REQUESTED:          0  ISSUED:          0  USEFUL:        391  USELESS:   11979112
LLC AVERAGE MISS LATENCY: 106.124 cycles
Major fault: 0 Minor fault: 24751
CPU 0 L1I next line prefetcher final stats
CPU 0 L2C best offset prefetcher final stats

DRAM Statistics
 CHANNEL 0
 RQ ROW_BUFFER_HIT:   12023666  ROW_BUFFER_MISS:    2967695
 DBUS_CONGESTED:    5487663
 WQ ROW_BUFFER_HIT:     134789  ROW_BUFFER_MISS:     287560  FULL:          0

 AVG_CONGESTED_CYCLE: 5

CPU 0 Branch Prediction Accuracy: 98.0342% MPKI: 2.3226 Average ROB Occupancy at Mispredict: 49.6261

Branch types
NOT_BRANCH: 220461838 88.1847%
BRANCH_DIRECT_JUMP: 466020 0.186408%
BRANCH_INDIRECT: 0 0%
BRANCH_CONDITIONAL: 28606418 11.4426%
BRANCH_DIRECT_CALL: 232839 0.0931356%
BRANCH_INDIRECT_CALL: 0 0%
BRANCH_RETURN: 232839 0.0931356%
BRANCH_OTHER: 0 0%

