
*** ChampSim Multicore Out-of-Order Simulator ***

Warmup Instructions: 50000000
Simulation Instructions: 250000000
Number of CPUs: 1
LLC sets: 2048
LLC ways: 16
Off-chip DRAM Size: 4096 MB Channels: 1 Width: 64-bit Data Rate: 3200 MT/s

CPU 0 runs /home/wezelis2/ECE511_Project/ChampSim/dpc3_traces/433.milc-127B.champsimtrace.xz
CPU 0 Bimodal branch predictor
CPU 0 L1I next line prefetcher
INIT BEST RECENT REQUEST TABLE MODULE
INIT DELAY QUEUE MODULE
INIT PREFETCH THROTTLE MODULE
INIT OFFSET SCORE MODULE
INIT BEST OFFSET PREFETCHER
OFFSET CHANGED FROM 1 TO 1
OFFSET CHANGED FROM 1 TO 1
OFFSET CHANGED FROM 1 TO 1
OFFSET CHANGED FROM 1 TO 1
OFFSET CHANGED FROM 1 TO 1
OFFSET CHANGED FROM 1 TO 1
OFFSET CHANGED FROM 1 TO 1
OFFSET CHANGED FROM 1 TO 1
OFFSET CHANGED FROM 1 TO 1
OFFSET CHANGED FROM 1 TO 1
OFFSET CHANGED FROM 1 TO 1
OFFSET CHANGED FROM 1 TO 1
OFFSET CHANGED FROM 1 TO 1
OFFSET CHANGED FROM 1 TO 1
OFFSET CHANGED FROM 1 TO 1
OFFSET CHANGED FROM 1 TO 1
OFFSET CHANGED FROM 1 TO 1
OFFSET CHANGED FROM 1 TO 1
OFFSET CHANGED FROM 1 TO 1
OFFSET CHANGED FROM 1 TO 1
OFFSET CHANGED FROM 1 TO 1
OFFSET CHANGED FROM 1 TO 1
OFFSET CHANGED FROM 1 TO 1
OFFSET CHANGED FROM 1 TO 1
OFFSET CHANGED FROM 1 TO 1
OFFSET CHANGED FROM 1 TO 1
OFFSET CHANGED FROM 1 TO 1
OFFSET CHANGED FROM 1 TO 1
OFFSET CHANGED FROM 1 TO 1
OFFSET CHANGED FROM 1 TO 1
OFFSET CHANGED FROM 1 TO 1
OFFSET CHANGED FROM 1 TO 1
OFFSET CHANGED FROM 1 TO 1
OFFSET CHANGED FROM 1 TO 1
OFFSET CHANGED FROM 1 TO 1
OFFSET CHANGED FROM 1 TO 1
OFFSET CHANGED FROM 1 TO 1
OFFSET CHANGED FROM 1 TO 1
OFFSET CHANGED FROM 1 TO 1
OFFSET CHANGED FROM 1 TO 1
OFFSET CHANGED FROM 1 TO 1
OFFSET CHANGED FROM 1 TO 1
OFFSET CHANGED FROM 1 TO 1
OFFSET CHANGED FROM 1 TO 1
OFFSET CHANGED FROM 1 TO 1
OFFSET CHANGED FROM 1 TO 1
OFFSET CHANGED FROM 1 TO 1
OFFSET CHANGED FROM 1 TO 1
OFFSET CHANGED FROM 1 TO 1
OFFSET CHANGED FROM 1 TO 1
OFFSET CHANGED FROM 1 TO 1
OFFSET CHANGED FROM 1 TO 1
OFFSET CHANGED FROM 1 TO 1
OFFSET CHANGED FROM 1 TO 1
OFFSET CHANGED FROM 1 TO 1
OFFSET CHANGED FROM 1 TO 1
OFFSET CHANGED FROM 1 TO 1
OFFSET CHANGED FROM 1 TO 1
OFFSET CHANGED FROM 1 TO 1
OFFSET CHANGED FROM 1 TO 1
OFFSET CHANGED FROM 1 TO 1
OFFSET CHANGED FROM 1 TO 1
OFFSET CHANGED FROM 1 TO 1
OFFSET CHANGED FROM 1 TO 1
OFFSET CHANGED FROM 1 TO 1
OFFSET CHANGED FROM 1 TO 1
OFFSET CHANGED FROM 1 TO 1
OFFSET CHANGED FROM 1 TO 1
OFFSET CHANGED FROM 1 TO 1
OFFSET CHANGED FROM 1 TO 1
OFFSET CHANGED FROM 1 TO 1
OFFSET CHANGED FROM 1 TO 1
OFFSET CHANGED FROM 1 TO 1
OFFSET CHANGED FROM 1 TO 1
OFFSET CHANGED FROM 1 TO 1
OFFSET CHANGED FROM 1 TO 1
OFFSET CHANGED FROM 1 TO 1
OFFSET CHANGED FROM 1 TO 1
OFFSET CHANGED FROM 1 TO 1
OFFSET CHANGED FROM 1 TO 1
OFFSET CHANGED FROM 1 TO 1
Heartbeat CPU 0 instructions: 10000003 cycles: 3489970 heartbeat IPC: 2.86536 cumulative IPC: 2.86536 (Simulation time: 0 hr 0 min 25 sec) 
OFFSET CHANGED FROM 1 TO 1
OFFSET CHANGED FROM 1 TO 1
OFFSET CHANGED FROM 1 TO 1
OFFSET CHANGED FROM 1 TO 1
OFFSET CHANGED FROM 1 TO 1
OFFSET CHANGED FROM 1 TO 1
OFFSET CHANGED FROM 1 TO 1
OFFSET CHANGED FROM 1 TO 1
OFFSET CHANGED FROM 1 TO 1
OFFSET CHANGED FROM 1 TO 1
OFFSET CHANGED FROM 1 TO 1
OFFSET CHANGED FROM 1 TO 1
OFFSET CHANGED FROM 1 TO 1
OFFSET CHANGED FROM 1 TO 1
OFFSET CHANGED FROM 1 TO 1
OFFSET CHANGED FROM 1 TO 1
OFFSET CHANGED FROM 1 TO 1
OFFSET CHANGED FROM 1 TO 1
OFFSET CHANGED FROM 1 TO 1
OFFSET CHANGED FROM 1 TO 1
OFFSET CHANGED FROM 1 TO 1
OFFSET CHANGED FROM 1 TO 1
OFFSET CHANGED FROM 1 TO 1
OFFSET CHANGED FROM 1 TO 1
OFFSET CHANGED FROM 1 TO 1
OFFSET CHANGED FROM 1 TO 1
OFFSET CHANGED FROM 1 TO 1
OFFSET CHANGED FROM 1 TO 1
OFFSET CHANGED FROM 1 TO 1
OFFSET CHANGED FROM 1 TO 1
OFFSET CHANGED FROM 1 TO 1
OFFSET CHANGED FROM 1 TO 1
OFFSET CHANGED FROM 1 TO 1
OFFSET CHANGED FROM 1 TO 1
OFFSET CHANGED FROM 1 TO 1
OFFSET CHANGED FROM 1 TO 1
OFFSET CHANGED FROM 1 TO 1
OFFSET CHANGED FROM 1 TO 1
OFFSET CHANGED FROM 1 TO 1
OFFSET CHANGED FROM 1 TO 1
OFFSET CHANGED FROM 1 TO 1
OFFSET CHANGED FROM 1 TO 1
OFFSET CHANGED FROM 1 TO 1
OFFSET CHANGED FROM 1 TO 1
OFFSET CHANGED FROM 1 TO 1
OFFSET CHANGED FROM 1 TO 1
OFFSET CHANGED FROM 1 TO 1
OFFSET CHANGED FROM 1 TO 1
OFFSET CHANGED FROM 1 TO 1
OFFSET CHANGED FROM 1 TO 1
OFFSET CHANGED FROM 1 TO 1
OFFSET CHANGED FROM 1 TO 1
OFFSET CHANGED FROM 1 TO 1
OFFSET CHANGED FROM 1 TO 1
OFFSET CHANGED FROM 1 TO 1
OFFSET CHANGED FROM 1 TO 1
OFFSET CHANGED FROM 1 TO 1
OFFSET CHANGED FROM 1 TO 1
OFFSET CHANGED FROM 1 TO 1
OFFSET CHANGED FROM 1 TO 1
OFFSET CHANGED FROM 1 TO 1
OFFSET CHANGED FROM 1 TO 1
OFFSET CHANGED FROM 1 TO 1
OFFSET CHANGED FROM 1 TO 1
OFFSET CHANGED FROM 1 TO 1
OFFSET CHANGED FROM 1 TO 1
OFFSET CHANGED FROM 1 TO 1
OFFSET CHANGED FROM 1 TO 1
OFFSET CHANGED FROM 1 TO 1
OFFSET CHANGED FROM 1 TO 1
OFFSET CHANGED FROM 1 TO 1
OFFSET CHANGED FROM 1 TO 1
OFFSET CHANGED FROM 1 TO 1
OFFSET CHANGED FROM 1 TO 1
OFFSET CHANGED FROM 1 TO 1
OFFSET CHANGED FROM 1 TO 1
OFFSET CHANGED FROM 1 TO 1
OFFSET CHANGED FROM 1 TO 1
Heartbeat CPU 0 instructions: 20000003 cycles: 7007812 heartbeat IPC: 2.84265 cumulative IPC: 2.85396 (Simulation time: 0 hr 0 min 51 sec) 
OFFSET CHANGED FROM 1 TO 1
OFFSET CHANGED FROM 1 TO 1
OFFSET CHANGED FROM 1 TO 1
OFFSET CHANGED FROM 1 TO 1
OFFSET CHANGED FROM 1 TO 2
OFFSET CHANGED FROM 2 TO 1
OFFSET CHANGED FROM 1 TO 1
OFFSET CHANGED FROM 1 TO 6
OFFSET CHANGED FROM 6 TO 8
OFFSET CHANGED FROM 8 TO 2
OFFSET CHANGED FROM 2 TO 2
OFFSET CHANGED FROM 2 TO 4
OFFSET CHANGED FROM 4 TO 2
OFFSET CHANGED FROM 2 TO 2
OFFSET CHANGED FROM 2 TO 1
OFFSET CHANGED FROM 1 TO 4
OFFSET CHANGED FROM 4 TO 2
OFFSET CHANGED FROM 2 TO 2
OFFSET CHANGED FROM 2 TO 4
OFFSET CHANGED FROM 4 TO 5
OFFSET CHANGED FROM 5 TO 4
OFFSET CHANGED FROM 4 TO 3
OFFSET CHANGED FROM 3 TO 4
OFFSET CHANGED FROM 4 TO 2
OFFSET CHANGED FROM 2 TO 2
OFFSET CHANGED FROM 2 TO 4
OFFSET CHANGED FROM 4 TO 5
OFFSET CHANGED FROM 5 TO 7
OFFSET CHANGED FROM 7 TO 6
OFFSET CHANGED FROM 6 TO 5
OFFSET CHANGED FROM 5 TO 7
OFFSET CHANGED FROM 7 TO 1
OFFSET CHANGED FROM 1 TO 1
OFFSET CHANGED FROM 1 TO 3
OFFSET CHANGED FROM 3 TO 1
OFFSET CHANGED FROM 1 TO 3
OFFSET CHANGED FROM 3 TO 4
OFFSET CHANGED FROM 4 TO 2
OFFSET CHANGED FROM 2 TO 2
OFFSET CHANGED FROM 2 TO 4
OFFSET CHANGED FROM 4 TO 5
OFFSET CHANGED FROM 5 TO 7
OFFSET CHANGED FROM 7 TO 1
OFFSET CHANGED FROM 1 TO 4
OFFSET CHANGED FROM 4 TO 2
OFFSET CHANGED FROM 2 TO 1
OFFSET CHANGED FROM 1 TO 3
OFFSET CHANGED FROM 3 TO 3
OFFSET CHANGED FROM 3 TO 2
OFFSET CHANGED FROM 2 TO 2
OFFSET CHANGED FROM 2 TO 4
OFFSET CHANGED FROM 4 TO 2
OFFSET CHANGED FROM 2 TO 4
OFFSET CHANGED FROM 4 TO 3
OFFSET CHANGED FROM 3 TO 3
OFFSET CHANGED FROM 3 TO 5
OFFSET CHANGED FROM 5 TO 4
OFFSET CHANGED FROM 4 TO 1
OFFSET CHANGED FROM 1 TO 1
OFFSET CHANGED FROM 1 TO 3
OFFSET CHANGED FROM 3 TO 1
OFFSET CHANGED FROM 1 TO 1
OFFSET CHANGED FROM 1 TO 5
OFFSET CHANGED FROM 5 TO 4
OFFSET CHANGED FROM 4 TO 4
OFFSET CHANGED FROM 4 TO 4
OFFSET CHANGED FROM 4 TO 2
OFFSET CHANGED FROM 2 TO 2
OFFSET CHANGED FROM 2 TO 2
OFFSET CHANGED FROM 2 TO 3
OFFSET CHANGED FROM 3 TO 2
OFFSET CHANGED FROM 2 TO 2
OFFSET CHANGED FROM 2 TO 4
OFFSET CHANGED FROM 4 TO 2
OFFSET CHANGED FROM 2 TO 1
OFFSET CHANGED FROM 1 TO 6
OFFSET CHANGED FROM 6 TO 5
OFFSET CHANGED FROM 5 TO 4
OFFSET CHANGED FROM 4 TO 5
OFFSET CHANGED FROM 5 TO 3
OFFSET CHANGED FROM 3 TO 5
OFFSET CHANGED FROM 5 TO 8
OFFSET CHANGED FROM 8 TO 9
OFFSET CHANGED FROM 9 TO 3
OFFSET CHANGED FROM 3 TO 2
OFFSET CHANGED FROM 2 TO 2
OFFSET CHANGED FROM 2 TO 4
OFFSET CHANGED FROM 4 TO 2
OFFSET CHANGED FROM 2 TO 4
OFFSET CHANGED FROM 4 TO 6
OFFSET CHANGED FROM 6 TO 5
OFFSET CHANGED FROM 5 TO 4
OFFSET CHANGED FROM 4 TO 1
OFFSET CHANGED FROM 1 TO 3
OFFSET CHANGED FROM 3 TO 3
OFFSET CHANGED FROM 3 TO 1
OFFSET CHANGED FROM 1 TO 1
OFFSET CHANGED FROM 1 TO 5
OFFSET CHANGED FROM 5 TO 4
OFFSET CHANGED FROM 4 TO 32
OFFSET CHANGED FROM 32 TO 32
OFFSET CHANGED FROM 32 TO 32
OFFSET CHANGED FROM 32 TO 32
OFFSET CHANGED FROM 32 TO 32
OFFSET CHANGED FROM 32 TO 32
OFFSET CHANGED FROM 32 TO 32
OFFSET CHANGED FROM 32 TO 32
OFFSET CHANGED FROM 32 TO 32
OFFSET CHANGED FROM 32 TO 32
OFFSET CHANGED FROM 32 TO 32
OFFSET CHANGED FROM 32 TO 32
OFFSET CHANGED FROM 32 TO 32
OFFSET CHANGED FROM 32 TO 32
OFFSET CHANGED FROM 32 TO 32
OFFSET CHANGED FROM 32 TO 32
OFFSET CHANGED FROM 32 TO 32
OFFSET CHANGED FROM 32 TO 32
OFFSET CHANGED FROM 32 TO 32
OFFSET CHANGED FROM 32 TO 32
OFFSET CHANGED FROM 32 TO 32
OFFSET CHANGED FROM 32 TO 32
Heartbeat CPU 0 instructions: 30000001 cycles: 11295740 heartbeat IPC: 2.33213 cumulative IPC: 2.65587 (Simulation time: 0 hr 1 min 22 sec) 
OFFSET CHANGED FROM 32 TO 32
OFFSET CHANGED FROM 32 TO 32
OFFSET CHANGED FROM 32 TO 32
OFFSET CHANGED FROM 32 TO 32
OFFSET CHANGED FROM 32 TO 32
OFFSET CHANGED FROM 32 TO 32
OFFSET CHANGED FROM 32 TO 32
OFFSET CHANGED FROM 32 TO 32
OFFSET CHANGED FROM 32 TO 32
OFFSET CHANGED FROM 32 TO 32
OFFSET CHANGED FROM 32 TO 32
OFFSET CHANGED FROM 32 TO 32
OFFSET CHANGED FROM 32 TO 32
OFFSET CHANGED FROM 32 TO 32
OFFSET CHANGED FROM 32 TO 32
OFFSET CHANGED FROM 32 TO 32
OFFSET CHANGED FROM 32 TO 32
OFFSET CHANGED FROM 32 TO 32
OFFSET CHANGED FROM 32 TO 32
OFFSET CHANGED FROM 32 TO 32
OFFSET CHANGED FROM 32 TO 32
OFFSET CHANGED FROM 32 TO 32
OFFSET CHANGED FROM 32 TO 32
OFFSET CHANGED FROM 32 TO 32
OFFSET CHANGED FROM 32 TO 32
OFFSET CHANGED FROM 32 TO 32
OFFSET CHANGED FROM 32 TO 32
OFFSET CHANGED FROM 32 TO 32
OFFSET CHANGED FROM 32 TO 32
OFFSET CHANGED FROM 32 TO 32
OFFSET CHANGED FROM 32 TO 32
OFFSET CHANGED FROM 32 TO 32
OFFSET CHANGED FROM 32 TO 32
OFFSET CHANGED FROM 32 TO 32
OFFSET CHANGED FROM 32 TO 32
OFFSET CHANGED FROM 32 TO 32
OFFSET CHANGED FROM 32 TO 32
OFFSET CHANGED FROM 32 TO 32
Heartbeat CPU 0 instructions: 40000001 cycles: 15343121 heartbeat IPC: 2.47073 cumulative IPC: 2.60703 (Simulation time: 0 hr 1 min 52 sec) 
OFFSET CHANGED FROM 32 TO 32
OFFSET CHANGED FROM 32 TO 32
OFFSET CHANGED FROM 32 TO 32
OFFSET CHANGED FROM 32 TO 32
OFFSET CHANGED FROM 32 TO 32
OFFSET CHANGED FROM 32 TO 32
OFFSET CHANGED FROM 32 TO 32
OFFSET CHANGED FROM 32 TO 32
OFFSET CHANGED FROM 32 TO 32
OFFSET CHANGED FROM 32 TO 32
OFFSET CHANGED FROM 32 TO 32
OFFSET CHANGED FROM 32 TO 32
OFFSET CHANGED FROM 32 TO 32
OFFSET CHANGED FROM 32 TO 32
OFFSET CHANGED FROM 32 TO 32
OFFSET CHANGED FROM 32 TO 32
OFFSET CHANGED FROM 32 TO 32
OFFSET CHANGED FROM 32 TO 32
OFFSET CHANGED FROM 32 TO 32
OFFSET CHANGED FROM 32 TO 32
OFFSET CHANGED FROM 32 TO 32
OFFSET CHANGED FROM 32 TO 32
OFFSET CHANGED FROM 32 TO 32
OFFSET CHANGED FROM 32 TO 32
OFFSET CHANGED FROM 32 TO 32
OFFSET CHANGED FROM 32 TO 32
OFFSET CHANGED FROM 32 TO 32
OFFSET CHANGED FROM 32 TO 32
OFFSET CHANGED FROM 32 TO 32
OFFSET CHANGED FROM 32 TO 32
OFFSET CHANGED FROM 32 TO 32
OFFSET CHANGED FROM 32 TO 32
OFFSET CHANGED FROM 32 TO 32
OFFSET CHANGED FROM 32 TO 32
OFFSET CHANGED FROM 32 TO 32
OFFSET CHANGED FROM 32 TO 32
OFFSET CHANGED FROM 32 TO 32
OFFSET CHANGED FROM 32 TO 32
OFFSET CHANGED FROM 32 TO 32
OFFSET CHANGED FROM 32 TO 32
Heartbeat CPU 0 instructions: 50000002 cycles: 19390484 heartbeat IPC: 2.47074 cumulative IPC: 2.57858 (Simulation time: 0 hr 2 min 22 sec) 

Warmup complete CPU 0 instructions: 50000002 cycles: 19390484 (Simulation time: 0 hr 2 min 22 sec) 

OFFSET CHANGED FROM 32 TO 32
OFFSET CHANGED FROM 32 TO 32
OFFSET CHANGED FROM 32 TO 32
OFFSET CHANGED FROM 32 TO 32
OFFSET CHANGED FROM 32 TO 32
OFFSET CHANGED FROM 32 TO 32
OFFSET CHANGED FROM 32 TO 32
OFFSET CHANGED FROM 32 TO 32
OFFSET CHANGED FROM 32 TO 32
OFFSET CHANGED FROM 32 TO 32
OFFSET CHANGED FROM 32 TO 32
OFFSET CHANGED FROM 32 TO 32
OFFSET CHANGED FROM 32 TO 32
OFFSET CHANGED FROM 32 TO 32
OFFSET CHANGED FROM 32 TO 32
OFFSET CHANGED FROM 32 TO 32
OFFSET CHANGED FROM 32 TO 32
OFFSET CHANGED FROM 32 TO 32
OFFSET CHANGED FROM 32 TO 32
OFFSET CHANGED FROM 32 TO 32
OFFSET CHANGED FROM 32 TO 32
OFFSET CHANGED FROM 32 TO 32
OFFSET CHANGED FROM 32 TO 32
OFFSET CHANGED FROM 32 TO 32
OFFSET CHANGED FROM 32 TO 32
OFFSET CHANGED FROM 32 TO 32
OFFSET CHANGED FROM 32 TO 32
OFFSET CHANGED FROM 32 TO 32
OFFSET CHANGED FROM 32 TO 32
OFFSET CHANGED FROM 32 TO 32
OFFSET CHANGED FROM 32 TO 32
OFFSET CHANGED FROM 32 TO 32
OFFSET CHANGED FROM 32 TO 32
OFFSET CHANGED FROM 32 TO 32
OFFSET CHANGED FROM 32 TO 32
OFFSET CHANGED FROM 32 TO 32
OFFSET CHANGED FROM 32 TO 32
OFFSET CHANGED FROM 32 TO 32
OFFSET CHANGED FROM 32 TO 32
Heartbeat CPU 0 instructions: 60000001 cycles: 32996763 heartbeat IPC: 0.734955 cumulative IPC: 0.734955 (Simulation time: 0 hr 2 min 49 sec) 
OFFSET CHANGED FROM 32 TO 32
OFFSET CHANGED FROM 32 TO 32
OFFSET CHANGED FROM 32 TO 32
OFFSET CHANGED FROM 32 TO 32
OFFSET CHANGED FROM 32 TO 32
OFFSET CHANGED FROM 32 TO 32
OFFSET CHANGED FROM 32 TO 32
OFFSET CHANGED FROM 32 TO 32
OFFSET CHANGED FROM 32 TO 32
OFFSET CHANGED FROM 32 TO 32
OFFSET CHANGED FROM 32 TO 32
OFFSET CHANGED FROM 32 TO 32
OFFSET CHANGED FROM 32 TO 32
OFFSET CHANGED FROM 32 TO 32
OFFSET CHANGED FROM 32 TO 32
OFFSET CHANGED FROM 32 TO 32
OFFSET CHANGED FROM 32 TO 32
OFFSET CHANGED FROM 32 TO 32
OFFSET CHANGED FROM 32 TO 32
OFFSET CHANGED FROM 32 TO 32
OFFSET CHANGED FROM 32 TO 32
OFFSET CHANGED FROM 32 TO 32
OFFSET CHANGED FROM 32 TO 32
OFFSET CHANGED FROM 32 TO 32
OFFSET CHANGED FROM 32 TO 32
OFFSET CHANGED FROM 32 TO 32
OFFSET CHANGED FROM 32 TO 32
OFFSET CHANGED FROM 32 TO 32
OFFSET CHANGED FROM 32 TO 32
OFFSET CHANGED FROM 32 TO 32
OFFSET CHANGED FROM 32 TO 32
OFFSET CHANGED FROM 32 TO 32
OFFSET CHANGED FROM 32 TO 32
OFFSET CHANGED FROM 32 TO 32
OFFSET CHANGED FROM 32 TO 32
OFFSET CHANGED FROM 32 TO 32
OFFSET CHANGED FROM 32 TO 32
OFFSET CHANGED FROM 32 TO 32
OFFSET CHANGED FROM 32 TO 32
OFFSET CHANGED FROM 32 TO 32
Heartbeat CPU 0 instructions: 70000000 cycles: 46526389 heartbeat IPC: 0.739119 cumulative IPC: 0.737031 (Simulation time: 0 hr 3 min 14 sec) 
OFFSET CHANGED FROM 32 TO 32
OFFSET CHANGED FROM 32 TO 32
OFFSET CHANGED FROM 32 TO 32
OFFSET CHANGED FROM 32 TO 32
OFFSET CHANGED FROM 32 TO 32
OFFSET CHANGED FROM 32 TO 32
OFFSET CHANGED FROM 32 TO 32
OFFSET CHANGED FROM 32 TO 32
OFFSET CHANGED FROM 32 TO 32
OFFSET CHANGED FROM 32 TO 32
OFFSET CHANGED FROM 32 TO 32
OFFSET CHANGED FROM 32 TO 32
OFFSET CHANGED FROM 32 TO 32
OFFSET CHANGED FROM 32 TO 32
OFFSET CHANGED FROM 32 TO 32
OFFSET CHANGED FROM 32 TO 32
OFFSET CHANGED FROM 32 TO 32
OFFSET CHANGED FROM 32 TO 32
OFFSET CHANGED FROM 32 TO 32
OFFSET CHANGED FROM 32 TO 32
OFFSET CHANGED FROM 32 TO 32
OFFSET CHANGED FROM 32 TO 32
OFFSET CHANGED FROM 32 TO 32
OFFSET CHANGED FROM 32 TO 32
OFFSET CHANGED FROM 32 TO 32
OFFSET CHANGED FROM 32 TO 32
OFFSET CHANGED FROM 32 TO 32
OFFSET CHANGED FROM 32 TO 32
OFFSET CHANGED FROM 32 TO 32
OFFSET CHANGED FROM 32 TO 32
OFFSET CHANGED FROM 32 TO 32
OFFSET CHANGED FROM 32 TO 32
OFFSET CHANGED FROM 32 TO 32
OFFSET CHANGED FROM 32 TO 32
OFFSET CHANGED FROM 32 TO 32
OFFSET CHANGED FROM 32 TO 32
OFFSET CHANGED FROM 32 TO 32
OFFSET CHANGED FROM 32 TO 32
OFFSET CHANGED FROM 32 TO 32
OFFSET CHANGED FROM 32 TO 32
Heartbeat CPU 0 instructions: 80000001 cycles: 60055279 heartbeat IPC: 0.739159 cumulative IPC: 0.737739 (Simulation time: 0 hr 3 min 40 sec) 
OFFSET CHANGED FROM 32 TO 32
OFFSET CHANGED FROM 32 TO 32
OFFSET CHANGED FROM 32 TO 32
OFFSET CHANGED FROM 32 TO 32
OFFSET CHANGED FROM 32 TO 32
OFFSET CHANGED FROM 32 TO 32
OFFSET CHANGED FROM 32 TO 32
OFFSET CHANGED FROM 32 TO 32
OFFSET CHANGED FROM 32 TO 32
OFFSET CHANGED FROM 32 TO 32
OFFSET CHANGED FROM 32 TO 32
OFFSET CHANGED FROM 32 TO 32
OFFSET CHANGED FROM 32 TO 32
OFFSET CHANGED FROM 32 TO 32
OFFSET CHANGED FROM 32 TO 32
OFFSET CHANGED FROM 32 TO 32
OFFSET CHANGED FROM 32 TO 32
OFFSET CHANGED FROM 32 TO 32
OFFSET CHANGED FROM 32 TO 32
OFFSET CHANGED FROM 32 TO 32
OFFSET CHANGED FROM 32 TO 32
OFFSET CHANGED FROM 32 TO 32
OFFSET CHANGED FROM 32 TO 32
OFFSET CHANGED FROM 32 TO 32
OFFSET CHANGED FROM 32 TO 32
OFFSET CHANGED FROM 32 TO 32
OFFSET CHANGED FROM 32 TO 32
OFFSET CHANGED FROM 32 TO 32
OFFSET CHANGED FROM 32 TO 32
OFFSET CHANGED FROM 32 TO 32
OFFSET CHANGED FROM 32 TO 32
OFFSET CHANGED FROM 32 TO 32
OFFSET CHANGED FROM 32 TO 32
OFFSET CHANGED FROM 32 TO 32
OFFSET CHANGED FROM 32 TO 32
OFFSET CHANGED FROM 32 TO 32
OFFSET CHANGED FROM 32 TO 32
OFFSET CHANGED FROM 32 TO 32
OFFSET CHANGED FROM 32 TO 32
Heartbeat CPU 0 instructions: 90000000 cycles: 73577872 heartbeat IPC: 0.739503 cumulative IPC: 0.738179 (Simulation time: 0 hr 4 min 6 sec) 
OFFSET CHANGED FROM 32 TO 32
OFFSET CHANGED FROM 32 TO 32
OFFSET CHANGED FROM 32 TO 32
OFFSET CHANGED FROM 32 TO 32
OFFSET CHANGED FROM 32 TO 32
OFFSET CHANGED FROM 32 TO 32
OFFSET CHANGED FROM 32 TO 32
OFFSET CHANGED FROM 32 TO 32
OFFSET CHANGED FROM 32 TO 32
OFFSET CHANGED FROM 32 TO 32
OFFSET CHANGED FROM 32 TO 32
OFFSET CHANGED FROM 32 TO 32
OFFSET CHANGED FROM 32 TO 32
OFFSET CHANGED FROM 32 TO 32
OFFSET CHANGED FROM 32 TO 32
OFFSET CHANGED FROM 32 TO 32
OFFSET CHANGED FROM 32 TO 32
OFFSET CHANGED FROM 32 TO 32
OFFSET CHANGED FROM 32 TO 5
OFFSET CHANGED FROM 5 TO 6
OFFSET CHANGED FROM 6 TO 7
OFFSET CHANGED FROM 7 TO 8
OFFSET CHANGED FROM 8 TO 8
OFFSET CHANGED FROM 8 TO 8
OFFSET CHANGED FROM 8 TO 8
OFFSET CHANGED FROM 8 TO 9
OFFSET CHANGED FROM 9 TO 8
OFFSET CHANGED FROM 8 TO 9
OFFSET CHANGED FROM 9 TO 8
OFFSET CHANGED FROM 8 TO 8
OFFSET CHANGED FROM 8 TO 8
OFFSET CHANGED FROM 8 TO 8
OFFSET CHANGED FROM 8 TO 9
OFFSET CHANGED FROM 9 TO 6
OFFSET CHANGED FROM 6 TO 6
OFFSET CHANGED FROM 6 TO 6
OFFSET CHANGED FROM 6 TO 6
OFFSET CHANGED FROM 6 TO 6
OFFSET CHANGED FROM 6 TO 7
OFFSET CHANGED FROM 7 TO 2
OFFSET CHANGED FROM 2 TO 2
OFFSET CHANGED FROM 2 TO 2
OFFSET CHANGED FROM 2 TO 2
OFFSET CHANGED FROM 2 TO 3
OFFSET CHANGED FROM 3 TO 4
OFFSET CHANGED FROM 4 TO 6
OFFSET CHANGED FROM 6 TO 7
OFFSET CHANGED FROM 7 TO 8
OFFSET CHANGED FROM 8 TO 8
OFFSET CHANGED FROM 8 TO 7
OFFSET CHANGED FROM 7 TO 7
OFFSET CHANGED FROM 7 TO 7
OFFSET CHANGED FROM 7 TO 7
OFFSET CHANGED FROM 7 TO 7
OFFSET CHANGED FROM 7 TO 7
OFFSET CHANGED FROM 7 TO 7
OFFSET CHANGED FROM 7 TO 8
OFFSET CHANGED FROM 8 TO 2
OFFSET CHANGED FROM 2 TO 2
OFFSET CHANGED FROM 2 TO 2
OFFSET CHANGED FROM 2 TO 3
OFFSET CHANGED FROM 3 TO 5
OFFSET CHANGED FROM 5 TO 5
OFFSET CHANGED FROM 5 TO 5
OFFSET CHANGED FROM 5 TO 6
OFFSET CHANGED FROM 6 TO 7
OFFSET CHANGED FROM 7 TO 7
OFFSET CHANGED FROM 7 TO 8
OFFSET CHANGED FROM 8 TO 9
OFFSET CHANGED FROM 9 TO 11
OFFSET CHANGED FROM 11 TO 12
OFFSET CHANGED FROM 12 TO 14
OFFSET CHANGED FROM 14 TO 12
OFFSET CHANGED FROM 12 TO 11
OFFSET CHANGED FROM 11 TO 11
OFFSET CHANGED FROM 11 TO 12
OFFSET CHANGED FROM 12 TO 13
OFFSET CHANGED FROM 13 TO 10
OFFSET CHANGED FROM 10 TO 11
OFFSET CHANGED FROM 11 TO 11
OFFSET CHANGED FROM 11 TO 12
OFFSET CHANGED FROM 12 TO 13
OFFSET CHANGED FROM 13 TO 13
OFFSET CHANGED FROM 13 TO 14
OFFSET CHANGED FROM 14 TO 14
OFFSET CHANGED FROM 14 TO 15
OFFSET CHANGED FROM 15 TO 16
OFFSET CHANGED FROM 16 TO 16
OFFSET CHANGED FROM 16 TO 16
OFFSET CHANGED FROM 16 TO 11
OFFSET CHANGED FROM 11 TO 12
OFFSET CHANGED FROM 12 TO 12
OFFSET CHANGED FROM 12 TO 13
OFFSET CHANGED FROM 13 TO 14
OFFSET CHANGED FROM 14 TO 13
OFFSET CHANGED FROM 13 TO 13
OFFSET CHANGED FROM 13 TO 13
OFFSET CHANGED FROM 13 TO 13
OFFSET CHANGED FROM 13 TO 13
OFFSET CHANGED FROM 13 TO 14
OFFSET CHANGED FROM 14 TO 15
OFFSET CHANGED FROM 15 TO 15
OFFSET CHANGED FROM 15 TO 16
OFFSET CHANGED FROM 16 TO 16
OFFSET CHANGED FROM 16 TO 5
OFFSET CHANGED FROM 5 TO 5
OFFSET CHANGED FROM 5 TO 7
OFFSET CHANGED FROM 7 TO 2
OFFSET CHANGED FROM 2 TO 2
OFFSET CHANGED FROM 2 TO 3
OFFSET CHANGED FROM 3 TO 3
OFFSET CHANGED FROM 3 TO 3
OFFSET CHANGED FROM 3 TO 4
OFFSET CHANGED FROM 4 TO 6
OFFSET CHANGED FROM 6 TO 6
OFFSET CHANGED FROM 6 TO 6
OFFSET CHANGED FROM 6 TO 7
OFFSET CHANGED FROM 7 TO 9
OFFSET CHANGED FROM 9 TO 3
OFFSET CHANGED FROM 3 TO 4
OFFSET CHANGED FROM 4 TO 5
OFFSET CHANGED FROM 5 TO 6
OFFSET CHANGED FROM 6 TO 6
OFFSET CHANGED FROM 6 TO 7
OFFSET CHANGED FROM 7 TO 8
OFFSET CHANGED FROM 8 TO 9
OFFSET CHANGED FROM 9 TO 9
OFFSET CHANGED FROM 9 TO 9
OFFSET CHANGED FROM 9 TO 9
OFFSET CHANGED FROM 9 TO 10
OFFSET CHANGED FROM 10 TO 11
OFFSET CHANGED FROM 11 TO 5
OFFSET CHANGED FROM 5 TO 7
OFFSET CHANGED FROM 7 TO 7
OFFSET CHANGED FROM 7 TO 6
OFFSET CHANGED FROM 6 TO 6
Heartbeat CPU 0 instructions: 100000003 cycles: 90620671 heartbeat IPC: 0.586758 cumulative IPC: 0.70195 (Simulation time: 0 hr 4 min 35 sec) 
OFFSET CHANGED FROM 6 TO 7
OFFSET CHANGED FROM 7 TO 7
OFFSET CHANGED FROM 7 TO 7
OFFSET CHANGED FROM 7 TO 9
OFFSET CHANGED FROM 9 TO 7
OFFSET CHANGED FROM 7 TO 6
OFFSET CHANGED FROM 6 TO 6
OFFSET CHANGED FROM 6 TO 3
OFFSET CHANGED FROM 3 TO 3
OFFSET CHANGED FROM 3 TO 3
OFFSET CHANGED FROM 3 TO 3
OFFSET CHANGED FROM 3 TO 4
OFFSET CHANGED FROM 4 TO 5
OFFSET CHANGED FROM 5 TO 5
OFFSET CHANGED FROM 5 TO 6
OFFSET CHANGED FROM 6 TO 7
OFFSET CHANGED FROM 7 TO 8
OFFSET CHANGED FROM 8 TO 8
OFFSET CHANGED FROM 8 TO 6
OFFSET CHANGED FROM 6 TO 7
OFFSET CHANGED FROM 7 TO 7
OFFSET CHANGED FROM 7 TO 8
OFFSET CHANGED FROM 8 TO 4
OFFSET CHANGED FROM 4 TO 4
OFFSET CHANGED FROM 4 TO 4
OFFSET CHANGED FROM 4 TO 4
OFFSET CHANGED FROM 4 TO 1
OFFSET CHANGED FROM 1 TO 2
OFFSET CHANGED FROM 2 TO 2
OFFSET CHANGED FROM 2 TO 32
OFFSET CHANGED FROM 32 TO 32
OFFSET CHANGED FROM 32 TO 32
OFFSET CHANGED FROM 32 TO 32
OFFSET CHANGED FROM 32 TO 32
OFFSET CHANGED FROM 32 TO 32
OFFSET CHANGED FROM 32 TO 32
OFFSET CHANGED FROM 32 TO 32
OFFSET CHANGED FROM 32 TO 32
OFFSET CHANGED FROM 32 TO 32
OFFSET CHANGED FROM 32 TO 32
OFFSET CHANGED FROM 32 TO 32
OFFSET CHANGED FROM 32 TO 32
OFFSET CHANGED FROM 32 TO 32
OFFSET CHANGED FROM 32 TO 32
OFFSET CHANGED FROM 32 TO 32
OFFSET CHANGED FROM 32 TO 32
OFFSET CHANGED FROM 32 TO 32
OFFSET CHANGED FROM 32 TO 32
OFFSET CHANGED FROM 32 TO 32
OFFSET CHANGED FROM 32 TO 32
OFFSET CHANGED FROM 32 TO 32
OFFSET CHANGED FROM 32 TO 32
OFFSET CHANGED FROM 32 TO 32
OFFSET CHANGED FROM 32 TO 32
OFFSET CHANGED FROM 32 TO 32
OFFSET CHANGED FROM 32 TO 32
OFFSET CHANGED FROM 32 TO 32
OFFSET CHANGED FROM 32 TO 32
OFFSET CHANGED FROM 32 TO 32
OFFSET CHANGED FROM 32 TO 32
OFFSET CHANGED FROM 32 TO 32
OFFSET CHANGED FROM 32 TO 32
OFFSET CHANGED FROM 32 TO 32
OFFSET CHANGED FROM 32 TO 32
OFFSET CHANGED FROM 32 TO 32
OFFSET CHANGED FROM 32 TO 32
OFFSET CHANGED FROM 32 TO 32
OFFSET CHANGED FROM 32 TO 32
OFFSET CHANGED FROM 32 TO 32
OFFSET CHANGED FROM 32 TO 32
OFFSET CHANGED FROM 32 TO 32
OFFSET CHANGED FROM 32 TO 32
OFFSET CHANGED FROM 32 TO 32
OFFSET CHANGED FROM 32 TO 32
OFFSET CHANGED FROM 32 TO 32
OFFSET CHANGED FROM 32 TO 32
OFFSET CHANGED FROM 32 TO 32
OFFSET CHANGED FROM 32 TO 32
OFFSET CHANGED FROM 32 TO 32
OFFSET CHANGED FROM 32 TO 32
OFFSET CHANGED FROM 32 TO 32
OFFSET CHANGED FROM 32 TO 32
OFFSET CHANGED FROM 32 TO 32
OFFSET CHANGED FROM 32 TO 32
OFFSET CHANGED FROM 32 TO 32
OFFSET CHANGED FROM 32 TO 32
OFFSET CHANGED FROM 32 TO 32
OFFSET CHANGED FROM 32 TO 32
OFFSET CHANGED FROM 32 TO 32
OFFSET CHANGED FROM 32 TO 32
OFFSET CHANGED FROM 32 TO 32
OFFSET CHANGED FROM 32 TO 32
Heartbeat CPU 0 instructions: 110000000 cycles: 109431852 heartbeat IPC: 0.531599 cumulative IPC: 0.66636 (Simulation time: 0 hr 5 min 10 sec) 
OFFSET CHANGED FROM 32 TO 32
OFFSET CHANGED FROM 32 TO 32
OFFSET CHANGED FROM 32 TO 32
OFFSET CHANGED FROM 32 TO 32
OFFSET CHANGED FROM 32 TO 32
OFFSET CHANGED FROM 32 TO 32
OFFSET CHANGED FROM 32 TO 32
OFFSET CHANGED FROM 32 TO 32
OFFSET CHANGED FROM 32 TO 32
OFFSET CHANGED FROM 32 TO 32
OFFSET CHANGED FROM 32 TO 32
OFFSET CHANGED FROM 32 TO 32
OFFSET CHANGED FROM 32 TO 32
OFFSET CHANGED FROM 32 TO 32
OFFSET CHANGED FROM 32 TO 32
OFFSET CHANGED FROM 32 TO 32
OFFSET CHANGED FROM 32 TO 32
OFFSET CHANGED FROM 32 TO 32
OFFSET CHANGED FROM 32 TO 32
OFFSET CHANGED FROM 32 TO 32
OFFSET CHANGED FROM 32 TO 32
OFFSET CHANGED FROM 32 TO 32
OFFSET CHANGED FROM 32 TO 32
OFFSET CHANGED FROM 32 TO 32
OFFSET CHANGED FROM 32 TO 32
OFFSET CHANGED FROM 32 TO 32
OFFSET CHANGED FROM 32 TO 32
OFFSET CHANGED FROM 32 TO 32
OFFSET CHANGED FROM 32 TO 32
OFFSET CHANGED FROM 32 TO 32
OFFSET CHANGED FROM 32 TO 32
OFFSET CHANGED FROM 32 TO 32
OFFSET CHANGED FROM 32 TO 32
OFFSET CHANGED FROM 32 TO 32
OFFSET CHANGED FROM 32 TO 32
OFFSET CHANGED FROM 32 TO 32
OFFSET CHANGED FROM 32 TO 32
OFFSET CHANGED FROM 32 TO 32
OFFSET CHANGED FROM 32 TO 32
OFFSET CHANGED FROM 32 TO 32
OFFSET CHANGED FROM 32 TO 32
OFFSET CHANGED FROM 32 TO 32
OFFSET CHANGED FROM 32 TO 32
OFFSET CHANGED FROM 32 TO 32
OFFSET CHANGED FROM 32 TO 32
OFFSET CHANGED FROM 32 TO 32
OFFSET CHANGED FROM 32 TO 32
OFFSET CHANGED FROM 32 TO 32
OFFSET CHANGED FROM 32 TO 32
OFFSET CHANGED FROM 32 TO 32
OFFSET CHANGED FROM 32 TO 32
OFFSET CHANGED FROM 32 TO 32
OFFSET CHANGED FROM 32 TO 32
OFFSET CHANGED FROM 32 TO 32
OFFSET CHANGED FROM 32 TO 32
OFFSET CHANGED FROM 32 TO 32
OFFSET CHANGED FROM 32 TO 32
OFFSET CHANGED FROM 32 TO 32
OFFSET CHANGED FROM 32 TO 32
OFFSET CHANGED FROM 32 TO 32
OFFSET CHANGED FROM 32 TO 32
OFFSET CHANGED FROM 32 TO 32
OFFSET CHANGED FROM 32 TO 32
OFFSET CHANGED FROM 32 TO 32
OFFSET CHANGED FROM 32 TO 32
OFFSET CHANGED FROM 32 TO 32
OFFSET CHANGED FROM 32 TO 32
OFFSET CHANGED FROM 32 TO 32
OFFSET CHANGED FROM 32 TO 32
OFFSET CHANGED FROM 32 TO 32
OFFSET CHANGED FROM 32 TO 32
OFFSET CHANGED FROM 32 TO 32
OFFSET CHANGED FROM 32 TO 32
OFFSET CHANGED FROM 32 TO 32
OFFSET CHANGED FROM 32 TO 32
OFFSET CHANGED FROM 32 TO 32
OFFSET CHANGED FROM 32 TO 32
OFFSET CHANGED FROM 32 TO 32
OFFSET CHANGED FROM 32 TO 32
OFFSET CHANGED FROM 32 TO 32
OFFSET CHANGED FROM 32 TO 32
OFFSET CHANGED FROM 32 TO 32
OFFSET CHANGED FROM 32 TO 32
OFFSET CHANGED FROM 32 TO 32
OFFSET CHANGED FROM 32 TO 32
OFFSET CHANGED FROM 32 TO 32
OFFSET CHANGED FROM 32 TO 32
OFFSET CHANGED FROM 32 TO 32
OFFSET CHANGED FROM 32 TO 32
OFFSET CHANGED FROM 32 TO 32
OFFSET CHANGED FROM 32 TO 32
Heartbeat CPU 0 instructions: 120000000 cycles: 130452278 heartbeat IPC: 0.475728 cumulative IPC: 0.63028 (Simulation time: 0 hr 5 min 45 sec) 
OFFSET CHANGED FROM 32 TO 32
OFFSET CHANGED FROM 32 TO 32
OFFSET CHANGED FROM 32 TO 32
OFFSET CHANGED FROM 32 TO 32
OFFSET CHANGED FROM 32 TO 32
OFFSET CHANGED FROM 32 TO 32
OFFSET CHANGED FROM 32 TO 32
OFFSET CHANGED FROM 32 TO 32
OFFSET CHANGED FROM 32 TO 32
OFFSET CHANGED FROM 32 TO 32
OFFSET CHANGED FROM 32 TO 32
OFFSET CHANGED FROM 32 TO 32
OFFSET CHANGED FROM 32 TO 32
OFFSET CHANGED FROM 32 TO 32
OFFSET CHANGED FROM 32 TO 32
OFFSET CHANGED FROM 32 TO 32
OFFSET CHANGED FROM 32 TO 32
OFFSET CHANGED FROM 32 TO 32
OFFSET CHANGED FROM 32 TO 32
OFFSET CHANGED FROM 32 TO 32
OFFSET CHANGED FROM 32 TO 32
OFFSET CHANGED FROM 32 TO 32
OFFSET CHANGED FROM 32 TO 32
OFFSET CHANGED FROM 32 TO 32
OFFSET CHANGED FROM 32 TO 32
OFFSET CHANGED FROM 32 TO 32
OFFSET CHANGED FROM 32 TO 32
OFFSET CHANGED FROM 32 TO 32
OFFSET CHANGED FROM 32 TO 32
OFFSET CHANGED FROM 32 TO 32
OFFSET CHANGED FROM 32 TO 32
OFFSET CHANGED FROM 32 TO 32
OFFSET CHANGED FROM 32 TO 32
OFFSET CHANGED FROM 32 TO 32
OFFSET CHANGED FROM 32 TO 32
OFFSET CHANGED FROM 32 TO 32
OFFSET CHANGED FROM 32 TO 32
OFFSET CHANGED FROM 32 TO 32
OFFSET CHANGED FROM 32 TO 32
OFFSET CHANGED FROM 32 TO 32
OFFSET CHANGED FROM 32 TO 32
OFFSET CHANGED FROM 32 TO 32
OFFSET CHANGED FROM 32 TO 32
OFFSET CHANGED FROM 32 TO 32
OFFSET CHANGED FROM 32 TO 32
OFFSET CHANGED FROM 32 TO 32
OFFSET CHANGED FROM 32 TO 32
OFFSET CHANGED FROM 32 TO 32
OFFSET CHANGED FROM 32 TO 32
OFFSET CHANGED FROM 32 TO 32
OFFSET CHANGED FROM 32 TO 32
OFFSET CHANGED FROM 32 TO 32
OFFSET CHANGED FROM 32 TO 32
OFFSET CHANGED FROM 32 TO 32
OFFSET CHANGED FROM 32 TO 32
OFFSET CHANGED FROM 32 TO 32
OFFSET CHANGED FROM 32 TO 32
OFFSET CHANGED FROM 32 TO 32
OFFSET CHANGED FROM 32 TO 32
OFFSET CHANGED FROM 32 TO 24
OFFSET CHANGED FROM 24 TO 20
OFFSET CHANGED FROM 20 TO 20
OFFSET CHANGED FROM 20 TO 7
OFFSET CHANGED FROM 7 TO 1
OFFSET CHANGED FROM 1 TO 2
OFFSET CHANGED FROM 2 TO 32
OFFSET CHANGED FROM 32 TO 32
OFFSET CHANGED FROM 32 TO 32
OFFSET CHANGED FROM 32 TO 32
OFFSET CHANGED FROM 32 TO 32
OFFSET CHANGED FROM 32 TO 32
OFFSET CHANGED FROM 32 TO 32
OFFSET CHANGED FROM 32 TO 32
OFFSET CHANGED FROM 32 TO 32
OFFSET CHANGED FROM 32 TO 32
OFFSET CHANGED FROM 32 TO 32
OFFSET CHANGED FROM 32 TO 32
Heartbeat CPU 0 instructions: 130000001 cycles: 150474680 heartbeat IPC: 0.499441 cumulative IPC: 0.610295 (Simulation time: 0 hr 6 min 24 sec) 
OFFSET CHANGED FROM 32 TO 32
OFFSET CHANGED FROM 32 TO 32
OFFSET CHANGED FROM 32 TO 32
OFFSET CHANGED FROM 32 TO 32
OFFSET CHANGED FROM 32 TO 32
OFFSET CHANGED FROM 32 TO 32
OFFSET CHANGED FROM 32 TO 32
OFFSET CHANGED FROM 32 TO 32
OFFSET CHANGED FROM 32 TO 32
OFFSET CHANGED FROM 32 TO 32
OFFSET CHANGED FROM 32 TO 32
OFFSET CHANGED FROM 32 TO 32
OFFSET CHANGED FROM 32 TO 32
OFFSET CHANGED FROM 32 TO 32
OFFSET CHANGED FROM 32 TO 32
OFFSET CHANGED FROM 32 TO 32
OFFSET CHANGED FROM 32 TO 32
OFFSET CHANGED FROM 32 TO 32
OFFSET CHANGED FROM 32 TO 32
OFFSET CHANGED FROM 32 TO 32
OFFSET CHANGED FROM 32 TO 32
OFFSET CHANGED FROM 32 TO 32
OFFSET CHANGED FROM 32 TO 32
OFFSET CHANGED FROM 32 TO 32
OFFSET CHANGED FROM 32 TO 32
OFFSET CHANGED FROM 32 TO 32
OFFSET CHANGED FROM 32 TO 32
OFFSET CHANGED FROM 32 TO 32
OFFSET CHANGED FROM 32 TO 32
OFFSET CHANGED FROM 32 TO 32
OFFSET CHANGED FROM 32 TO 32
OFFSET CHANGED FROM 32 TO 32
OFFSET CHANGED FROM 32 TO 32
OFFSET CHANGED FROM 32 TO 32
OFFSET CHANGED FROM 32 TO 32
OFFSET CHANGED FROM 32 TO 32
OFFSET CHANGED FROM 32 TO 32
OFFSET CHANGED FROM 32 TO 32
OFFSET CHANGED FROM 32 TO 32
OFFSET CHANGED FROM 32 TO 32
OFFSET CHANGED FROM 32 TO 32
OFFSET CHANGED FROM 32 TO 32
OFFSET CHANGED FROM 32 TO 32
OFFSET CHANGED FROM 32 TO 32
OFFSET CHANGED FROM 32 TO 32
OFFSET CHANGED FROM 32 TO 32
OFFSET CHANGED FROM 32 TO 32
OFFSET CHANGED FROM 32 TO 32
OFFSET CHANGED FROM 32 TO 32
OFFSET CHANGED FROM 32 TO 32
OFFSET CHANGED FROM 32 TO 32
OFFSET CHANGED FROM 32 TO 32
OFFSET CHANGED FROM 32 TO 32
OFFSET CHANGED FROM 32 TO 32
OFFSET CHANGED FROM 32 TO 32
OFFSET CHANGED FROM 32 TO 32
OFFSET CHANGED FROM 32 TO 32
OFFSET CHANGED FROM 32 TO 32
OFFSET CHANGED FROM 32 TO 32
OFFSET CHANGED FROM 32 TO 32
OFFSET CHANGED FROM 32 TO 32
OFFSET CHANGED FROM 32 TO 32
OFFSET CHANGED FROM 32 TO 32
OFFSET CHANGED FROM 32 TO 32
OFFSET CHANGED FROM 32 TO 32
OFFSET CHANGED FROM 32 TO 32
OFFSET CHANGED FROM 32 TO 32
OFFSET CHANGED FROM 32 TO 32
OFFSET CHANGED FROM 32 TO 32
OFFSET CHANGED FROM 32 TO 32
OFFSET CHANGED FROM 32 TO 32
OFFSET CHANGED FROM 32 TO 32
OFFSET CHANGED FROM 32 TO 32
OFFSET CHANGED FROM 32 TO 32
OFFSET CHANGED FROM 32 TO 32
OFFSET CHANGED FROM 32 TO 32
OFFSET CHANGED FROM 32 TO 32
OFFSET CHANGED FROM 32 TO 32
OFFSET CHANGED FROM 32 TO 32
OFFSET CHANGED FROM 32 TO 32
OFFSET CHANGED FROM 32 TO 32
OFFSET CHANGED FROM 32 TO 32
OFFSET CHANGED FROM 32 TO 32
OFFSET CHANGED FROM 32 TO 32
OFFSET CHANGED FROM 32 TO 32
OFFSET CHANGED FROM 32 TO 32
OFFSET CHANGED FROM 32 TO 32
OFFSET CHANGED FROM 32 TO 32
OFFSET CHANGED FROM 32 TO 32
Heartbeat CPU 0 instructions: 140000003 cycles: 172015183 heartbeat IPC: 0.464242 cumulative IPC: 0.589682 (Simulation time: 0 hr 7 min 1 sec) 
OFFSET CHANGED FROM 32 TO 32
OFFSET CHANGED FROM 32 TO 32
OFFSET CHANGED FROM 32 TO 32
OFFSET CHANGED FROM 32 TO 32
OFFSET CHANGED FROM 32 TO 32
OFFSET CHANGED FROM 32 TO 32
OFFSET CHANGED FROM 32 TO 32
OFFSET CHANGED FROM 32 TO 32
OFFSET CHANGED FROM 32 TO 32
OFFSET CHANGED FROM 32 TO 32
OFFSET CHANGED FROM 32 TO 32
OFFSET CHANGED FROM 32 TO 32
OFFSET CHANGED FROM 32 TO 32
OFFSET CHANGED FROM 32 TO 32
OFFSET CHANGED FROM 32 TO 32
OFFSET CHANGED FROM 32 TO 32
OFFSET CHANGED FROM 32 TO 32
OFFSET CHANGED FROM 32 TO 32
OFFSET CHANGED FROM 32 TO 32
OFFSET CHANGED FROM 32 TO 32
OFFSET CHANGED FROM 32 TO 32
OFFSET CHANGED FROM 32 TO 32
OFFSET CHANGED FROM 32 TO 32
OFFSET CHANGED FROM 32 TO 32
OFFSET CHANGED FROM 32 TO 32
OFFSET CHANGED FROM 32 TO 32
OFFSET CHANGED FROM 32 TO 32
OFFSET CHANGED FROM 32 TO 32
OFFSET CHANGED FROM 32 TO 32
OFFSET CHANGED FROM 32 TO 32
OFFSET CHANGED FROM 32 TO 32
OFFSET CHANGED FROM 32 TO 32
OFFSET CHANGED FROM 32 TO 32
OFFSET CHANGED FROM 32 TO 32
OFFSET CHANGED FROM 32 TO 32
OFFSET CHANGED FROM 32 TO 32
OFFSET CHANGED FROM 32 TO 32
OFFSET CHANGED FROM 32 TO 32
OFFSET CHANGED FROM 32 TO 32
OFFSET CHANGED FROM 32 TO 32
OFFSET CHANGED FROM 32 TO 32
OFFSET CHANGED FROM 32 TO 32
OFFSET CHANGED FROM 32 TO 32
OFFSET CHANGED FROM 32 TO 32
OFFSET CHANGED FROM 32 TO 32
OFFSET CHANGED FROM 32 TO 32
OFFSET CHANGED FROM 32 TO 32
OFFSET CHANGED FROM 32 TO 32
OFFSET CHANGED FROM 32 TO 32
OFFSET CHANGED FROM 32 TO 32
OFFSET CHANGED FROM 32 TO 32
OFFSET CHANGED FROM 32 TO 32
OFFSET CHANGED FROM 32 TO 32
OFFSET CHANGED FROM 32 TO 32
OFFSET CHANGED FROM 32 TO 32
OFFSET CHANGED FROM 32 TO 32
OFFSET CHANGED FROM 32 TO 32
OFFSET CHANGED FROM 32 TO 32
OFFSET CHANGED FROM 32 TO 32
OFFSET CHANGED FROM 32 TO 32
OFFSET CHANGED FROM 32 TO 32
OFFSET CHANGED FROM 32 TO 32
OFFSET CHANGED FROM 32 TO 32
OFFSET CHANGED FROM 32 TO 32
OFFSET CHANGED FROM 32 TO 32
OFFSET CHANGED FROM 32 TO 32
OFFSET CHANGED FROM 32 TO 32
OFFSET CHANGED FROM 32 TO 32
OFFSET CHANGED FROM 32 TO 32
OFFSET CHANGED FROM 32 TO 32
OFFSET CHANGED FROM 32 TO 32
OFFSET CHANGED FROM 32 TO 32
OFFSET CHANGED FROM 32 TO 32
OFFSET CHANGED FROM 32 TO 32
OFFSET CHANGED FROM 32 TO 32
OFFSET CHANGED FROM 32 TO 32
OFFSET CHANGED FROM 32 TO 32
OFFSET CHANGED FROM 32 TO 32
OFFSET CHANGED FROM 32 TO 32
OFFSET CHANGED FROM 32 TO 32
OFFSET CHANGED FROM 32 TO 32
OFFSET CHANGED FROM 32 TO 32
OFFSET CHANGED FROM 32 TO 32
OFFSET CHANGED FROM 32 TO 32
OFFSET CHANGED FROM 32 TO 32
OFFSET CHANGED FROM 32 TO 32
OFFSET CHANGED FROM 32 TO 32
OFFSET CHANGED FROM 32 TO 32
OFFSET CHANGED FROM 32 TO 32
OFFSET CHANGED FROM 32 TO 32
OFFSET CHANGED FROM 32 TO 32
Heartbeat CPU 0 instructions: 150000001 cycles: 193548793 heartbeat IPC: 0.46439 cumulative IPC: 0.57419 (Simulation time: 0 hr 7 min 38 sec) 
OFFSET CHANGED FROM 32 TO 32
OFFSET CHANGED FROM 32 TO 32
OFFSET CHANGED FROM 32 TO 32
OFFSET CHANGED FROM 32 TO 32
OFFSET CHANGED FROM 32 TO 32
OFFSET CHANGED FROM 32 TO 32
OFFSET CHANGED FROM 32 TO 32
OFFSET CHANGED FROM 32 TO 32
OFFSET CHANGED FROM 32 TO 32
OFFSET CHANGED FROM 32 TO 32
OFFSET CHANGED FROM 32 TO 32
OFFSET CHANGED FROM 32 TO 32
OFFSET CHANGED FROM 32 TO 32
OFFSET CHANGED FROM 32 TO 32
OFFSET CHANGED FROM 32 TO 32
OFFSET CHANGED FROM 32 TO 32
OFFSET CHANGED FROM 32 TO 32
OFFSET CHANGED FROM 32 TO 32
OFFSET CHANGED FROM 32 TO 32
OFFSET CHANGED FROM 32 TO 32
OFFSET CHANGED FROM 32 TO 32
OFFSET CHANGED FROM 32 TO 32
OFFSET CHANGED FROM 32 TO 32
OFFSET CHANGED FROM 32 TO 32
OFFSET CHANGED FROM 32 TO 32
OFFSET CHANGED FROM 32 TO 32
OFFSET CHANGED FROM 32 TO 32
OFFSET CHANGED FROM 32 TO 32
OFFSET CHANGED FROM 32 TO 32
OFFSET CHANGED FROM 32 TO 32
OFFSET CHANGED FROM 32 TO 32
OFFSET CHANGED FROM 32 TO 32
OFFSET CHANGED FROM 32 TO 32
OFFSET CHANGED FROM 32 TO 32
OFFSET CHANGED FROM 32 TO 32
OFFSET CHANGED FROM 32 TO 32
Heartbeat CPU 0 instructions: 160000000 cycles: 208401759 heartbeat IPC: 0.673266 cumulative IPC: 0.581976 (Simulation time: 0 hr 8 min 6 sec) 
OFFSET CHANGED FROM 32 TO 32
OFFSET CHANGED FROM 32 TO 32
OFFSET CHANGED FROM 32 TO 32
OFFSET CHANGED FROM 32 TO 32
OFFSET CHANGED FROM 32 TO 32
OFFSET CHANGED FROM 32 TO 32
OFFSET CHANGED FROM 32 TO 32
OFFSET CHANGED FROM 32 TO 32
OFFSET CHANGED FROM 32 TO 32
OFFSET CHANGED FROM 32 TO 32
OFFSET CHANGED FROM 32 TO 32
OFFSET CHANGED FROM 32 TO 32
OFFSET CHANGED FROM 32 TO 32
OFFSET CHANGED FROM 32 TO 32
OFFSET CHANGED FROM 32 TO 32
OFFSET CHANGED FROM 32 TO 32
OFFSET CHANGED FROM 32 TO 32
OFFSET CHANGED FROM 32 TO 32
OFFSET CHANGED FROM 32 TO 32
OFFSET CHANGED FROM 32 TO 32
OFFSET CHANGED FROM 32 TO 32
OFFSET CHANGED FROM 32 TO 32
OFFSET CHANGED FROM 32 TO 32
OFFSET CHANGED FROM 32 TO 32
OFFSET CHANGED FROM 32 TO 32
OFFSET CHANGED FROM 32 TO 32
OFFSET CHANGED FROM 32 TO 32
OFFSET CHANGED FROM 32 TO 32
Heartbeat CPU 0 instructions: 170000002 cycles: 221797824 heartbeat IPC: 0.746488 cumulative IPC: 0.592864 (Simulation time: 0 hr 8 min 31 sec) 
OFFSET CHANGED FROM 32 TO 32
OFFSET CHANGED FROM 32 TO 32
OFFSET CHANGED FROM 32 TO 32
OFFSET CHANGED FROM 32 TO 32
OFFSET CHANGED FROM 32 TO 32
OFFSET CHANGED FROM 32 TO 32
OFFSET CHANGED FROM 32 TO 32
OFFSET CHANGED FROM 32 TO 32
OFFSET CHANGED FROM 32 TO 32
OFFSET CHANGED FROM 32 TO 32
OFFSET CHANGED FROM 32 TO 32
OFFSET CHANGED FROM 32 TO 32
OFFSET CHANGED FROM 32 TO 32
OFFSET CHANGED FROM 32 TO 32
OFFSET CHANGED FROM 32 TO 32
OFFSET CHANGED FROM 32 TO 32
OFFSET CHANGED FROM 32 TO 32
OFFSET CHANGED FROM 32 TO 32
OFFSET CHANGED FROM 32 TO 32
OFFSET CHANGED FROM 32 TO 32
OFFSET CHANGED FROM 32 TO 32
OFFSET CHANGED FROM 32 TO 32
OFFSET CHANGED FROM 32 TO 32
OFFSET CHANGED FROM 32 TO 32
OFFSET CHANGED FROM 32 TO 32
OFFSET CHANGED FROM 32 TO 32
OFFSET CHANGED FROM 32 TO 32
OFFSET CHANGED FROM 32 TO 32
OFFSET CHANGED FROM 32 TO 32
OFFSET CHANGED FROM 32 TO 32
Heartbeat CPU 0 instructions: 180000000 cycles: 235385817 heartbeat IPC: 0.735944 cumulative IPC: 0.601865 (Simulation time: 0 hr 8 min 57 sec) 
OFFSET CHANGED FROM 32 TO 32
OFFSET CHANGED FROM 32 TO 32
OFFSET CHANGED FROM 32 TO 32
OFFSET CHANGED FROM 32 TO 32
OFFSET CHANGED FROM 32 TO 32
OFFSET CHANGED FROM 32 TO 32
OFFSET CHANGED FROM 32 TO 32
OFFSET CHANGED FROM 32 TO 32
OFFSET CHANGED FROM 32 TO 32
OFFSET CHANGED FROM 32 TO 32
OFFSET CHANGED FROM 32 TO 32
OFFSET CHANGED FROM 32 TO 32
OFFSET CHANGED FROM 32 TO 32
OFFSET CHANGED FROM 32 TO 32
OFFSET CHANGED FROM 32 TO 32
OFFSET CHANGED FROM 32 TO 32
OFFSET CHANGED FROM 32 TO 32
OFFSET CHANGED FROM 32 TO 32
OFFSET CHANGED FROM 32 TO 32
OFFSET CHANGED FROM 32 TO 32
OFFSET CHANGED FROM 32 TO 32
OFFSET CHANGED FROM 32 TO 32
OFFSET CHANGED FROM 32 TO 32
OFFSET CHANGED FROM 32 TO 32
OFFSET CHANGED FROM 32 TO 32
OFFSET CHANGED FROM 32 TO 32
OFFSET CHANGED FROM 32 TO 32
OFFSET CHANGED FROM 32 TO 32
OFFSET CHANGED FROM 32 TO 32
OFFSET CHANGED FROM 32 TO 32
Heartbeat CPU 0 instructions: 190000000 cycles: 248948206 heartbeat IPC: 0.737333 cumulative IPC: 0.609868 (Simulation time: 0 hr 9 min 25 sec) 
OFFSET CHANGED FROM 32 TO 32
OFFSET CHANGED FROM 32 TO 32
OFFSET CHANGED FROM 32 TO 32
OFFSET CHANGED FROM 32 TO 32
OFFSET CHANGED FROM 32 TO 32
OFFSET CHANGED FROM 32 TO 32
OFFSET CHANGED FROM 32 TO 32
OFFSET CHANGED FROM 32 TO 32
OFFSET CHANGED FROM 32 TO 32
OFFSET CHANGED FROM 32 TO 32
OFFSET CHANGED FROM 32 TO 32
OFFSET CHANGED FROM 32 TO 32
OFFSET CHANGED FROM 32 TO 32
OFFSET CHANGED FROM 32 TO 32
OFFSET CHANGED FROM 32 TO 32
OFFSET CHANGED FROM 32 TO 32
OFFSET CHANGED FROM 32 TO 32
OFFSET CHANGED FROM 32 TO 32
OFFSET CHANGED FROM 32 TO 32
OFFSET CHANGED FROM 32 TO 32
OFFSET CHANGED FROM 32 TO 32
OFFSET CHANGED FROM 32 TO 32
OFFSET CHANGED FROM 32 TO 32
OFFSET CHANGED FROM 32 TO 32
OFFSET CHANGED FROM 32 TO 32
OFFSET CHANGED FROM 32 TO 32
OFFSET CHANGED FROM 32 TO 32
OFFSET CHANGED FROM 32 TO 32
OFFSET CHANGED FROM 32 TO 32
OFFSET CHANGED FROM 32 TO 32
OFFSET CHANGED FROM 32 TO 32
Heartbeat CPU 0 instructions: 200000002 cycles: 262477233 heartbeat IPC: 0.739152 cumulative IPC: 0.617064 (Simulation time: 0 hr 9 min 49 sec) 
OFFSET CHANGED FROM 32 TO 32
OFFSET CHANGED FROM 32 TO 32
OFFSET CHANGED FROM 32 TO 32
OFFSET CHANGED FROM 32 TO 32
OFFSET CHANGED FROM 32 TO 32
OFFSET CHANGED FROM 32 TO 32
OFFSET CHANGED FROM 32 TO 32
OFFSET CHANGED FROM 32 TO 32
OFFSET CHANGED FROM 32 TO 32
OFFSET CHANGED FROM 32 TO 32
OFFSET CHANGED FROM 32 TO 32
OFFSET CHANGED FROM 32 TO 32
OFFSET CHANGED FROM 32 TO 32
OFFSET CHANGED FROM 32 TO 32
OFFSET CHANGED FROM 32 TO 32
OFFSET CHANGED FROM 32 TO 32
OFFSET CHANGED FROM 32 TO 32
OFFSET CHANGED FROM 32 TO 32
OFFSET CHANGED FROM 32 TO 32
OFFSET CHANGED FROM 32 TO 32
OFFSET CHANGED FROM 32 TO 32
OFFSET CHANGED FROM 32 TO 32
OFFSET CHANGED FROM 32 TO 32
OFFSET CHANGED FROM 32 TO 32
OFFSET CHANGED FROM 32 TO 32
OFFSET CHANGED FROM 32 TO 32
OFFSET CHANGED FROM 32 TO 32
OFFSET CHANGED FROM 32 TO 32
OFFSET CHANGED FROM 32 TO 32
OFFSET CHANGED FROM 32 TO 32
Heartbeat CPU 0 instructions: 210000001 cycles: 276005386 heartbeat IPC: 0.739199 cumulative IPC: 0.623502 (Simulation time: 0 hr 10 min 16 sec) 
OFFSET CHANGED FROM 32 TO 32
OFFSET CHANGED FROM 32 TO 32
OFFSET CHANGED FROM 32 TO 32
OFFSET CHANGED FROM 32 TO 32
OFFSET CHANGED FROM 32 TO 32
OFFSET CHANGED FROM 32 TO 32
OFFSET CHANGED FROM 32 TO 32
OFFSET CHANGED FROM 32 TO 32
OFFSET CHANGED FROM 32 TO 32
OFFSET CHANGED FROM 32 TO 32
OFFSET CHANGED FROM 32 TO 32
OFFSET CHANGED FROM 32 TO 32
OFFSET CHANGED FROM 32 TO 32
OFFSET CHANGED FROM 32 TO 32
OFFSET CHANGED FROM 32 TO 32
OFFSET CHANGED FROM 32 TO 32
OFFSET CHANGED FROM 32 TO 32
OFFSET CHANGED FROM 32 TO 32
OFFSET CHANGED FROM 32 TO 32
OFFSET CHANGED FROM 32 TO 32
OFFSET CHANGED FROM 32 TO 32
OFFSET CHANGED FROM 32 TO 32
OFFSET CHANGED FROM 32 TO 32
OFFSET CHANGED FROM 32 TO 32
OFFSET CHANGED FROM 32 TO 32
OFFSET CHANGED FROM 32 TO 32
OFFSET CHANGED FROM 32 TO 32
OFFSET CHANGED FROM 32 TO 32
OFFSET CHANGED FROM 32 TO 32
OFFSET CHANGED FROM 32 TO 32
Heartbeat CPU 0 instructions: 220000000 cycles: 289527829 heartbeat IPC: 0.739511 cumulative IPC: 0.629309 (Simulation time: 0 hr 10 min 43 sec) 
OFFSET CHANGED FROM 32 TO 32
OFFSET CHANGED FROM 32 TO 32
OFFSET CHANGED FROM 32 TO 32
OFFSET CHANGED FROM 32 TO 32
OFFSET CHANGED FROM 32 TO 32
OFFSET CHANGED FROM 32 TO 32
OFFSET CHANGED FROM 32 TO 32
OFFSET CHANGED FROM 32 TO 32
OFFSET CHANGED FROM 32 TO 32
OFFSET CHANGED FROM 32 TO 32
OFFSET CHANGED FROM 32 TO 32
OFFSET CHANGED FROM 32 TO 32
OFFSET CHANGED FROM 32 TO 32
OFFSET CHANGED FROM 32 TO 32
OFFSET CHANGED FROM 32 TO 32
OFFSET CHANGED FROM 32 TO 32
OFFSET CHANGED FROM 32 TO 32
OFFSET CHANGED FROM 32 TO 32
OFFSET CHANGED FROM 32 TO 32
OFFSET CHANGED FROM 32 TO 32
OFFSET CHANGED FROM 32 TO 32
OFFSET CHANGED FROM 32 TO 32
OFFSET CHANGED FROM 32 TO 32
OFFSET CHANGED FROM 32 TO 32
OFFSET CHANGED FROM 32 TO 32
OFFSET CHANGED FROM 32 TO 32
OFFSET CHANGED FROM 32 TO 32
OFFSET CHANGED FROM 32 TO 32
OFFSET CHANGED FROM 32 TO 32
OFFSET CHANGED FROM 32 TO 32
OFFSET CHANGED FROM 32 TO 32
OFFSET CHANGED FROM 32 TO 32
OFFSET CHANGED FROM 32 TO 32
OFFSET CHANGED FROM 32 TO 32
OFFSET CHANGED FROM 32 TO 32
OFFSET CHANGED FROM 32 TO 32
OFFSET CHANGED FROM 32 TO 32
OFFSET CHANGED FROM 32 TO 32
OFFSET CHANGED FROM 32 TO 32
OFFSET CHANGED FROM 32 TO 32
OFFSET CHANGED FROM 32 TO 32
OFFSET CHANGED FROM 32 TO 32
OFFSET CHANGED FROM 32 TO 32
OFFSET CHANGED FROM 32 TO 32
OFFSET CHANGED FROM 32 TO 32
OFFSET CHANGED FROM 32 TO 32
OFFSET CHANGED FROM 32 TO 32
OFFSET CHANGED FROM 32 TO 32
OFFSET CHANGED FROM 32 TO 32
OFFSET CHANGED FROM 32 TO 32
OFFSET CHANGED FROM 32 TO 32
OFFSET CHANGED FROM 32 TO 32
OFFSET CHANGED FROM 32 TO 32
OFFSET CHANGED FROM 32 TO 32
OFFSET CHANGED FROM 32 TO 32
OFFSET CHANGED FROM 32 TO 32
OFFSET CHANGED FROM 32 TO 32
OFFSET CHANGED FROM 32 TO 32
OFFSET CHANGED FROM 32 TO 32
OFFSET CHANGED FROM 32 TO 32
OFFSET CHANGED FROM 32 TO 32
OFFSET CHANGED FROM 32 TO 32
OFFSET CHANGED FROM 32 TO 32
OFFSET CHANGED FROM 32 TO 32
OFFSET CHANGED FROM 32 TO 32
OFFSET CHANGED FROM 32 TO 32
OFFSET CHANGED FROM 32 TO 32
OFFSET CHANGED FROM 32 TO 32
OFFSET CHANGED FROM 32 TO 32
Heartbeat CPU 0 instructions: 230000000 cycles: 309360654 heartbeat IPC: 0.504215 cumulative IPC: 0.620754 (Simulation time: 0 hr 11 min 20 sec) 
OFFSET CHANGED FROM 32 TO 32
OFFSET CHANGED FROM 32 TO 32
OFFSET CHANGED FROM 32 TO 32
OFFSET CHANGED FROM 32 TO 32
OFFSET CHANGED FROM 32 TO 32
OFFSET CHANGED FROM 32 TO 32
OFFSET CHANGED FROM 32 TO 32
OFFSET CHANGED FROM 32 TO 32
OFFSET CHANGED FROM 32 TO 32
OFFSET CHANGED FROM 32 TO 32
OFFSET CHANGED FROM 32 TO 32
OFFSET CHANGED FROM 32 TO 32
OFFSET CHANGED FROM 32 TO 32
OFFSET CHANGED FROM 32 TO 32
OFFSET CHANGED FROM 32 TO 32
OFFSET CHANGED FROM 32 TO 32
OFFSET CHANGED FROM 32 TO 32
OFFSET CHANGED FROM 32 TO 32
OFFSET CHANGED FROM 32 TO 32
OFFSET CHANGED FROM 32 TO 32
OFFSET CHANGED FROM 32 TO 32
OFFSET CHANGED FROM 32 TO 32
OFFSET CHANGED FROM 32 TO 32
OFFSET CHANGED FROM 32 TO 32
OFFSET CHANGED FROM 32 TO 32
OFFSET CHANGED FROM 32 TO 32
OFFSET CHANGED FROM 32 TO 32
OFFSET CHANGED FROM 32 TO 32
OFFSET CHANGED FROM 32 TO 32
OFFSET CHANGED FROM 32 TO 32
OFFSET CHANGED FROM 32 TO 32
OFFSET CHANGED FROM 32 TO 32
OFFSET CHANGED FROM 32 TO 32
OFFSET CHANGED FROM 32 TO 32
OFFSET CHANGED FROM 32 TO 32
OFFSET CHANGED FROM 32 TO 32
OFFSET CHANGED FROM 32 TO 32
OFFSET CHANGED FROM 32 TO 32
OFFSET CHANGED FROM 32 TO 32
OFFSET CHANGED FROM 32 TO 32
OFFSET CHANGED FROM 32 TO 32
OFFSET CHANGED FROM 32 TO 32
OFFSET CHANGED FROM 32 TO 32
OFFSET CHANGED FROM 32 TO 32
OFFSET CHANGED FROM 32 TO 32
OFFSET CHANGED FROM 32 TO 32
OFFSET CHANGED FROM 32 TO 32
OFFSET CHANGED FROM 32 TO 32
OFFSET CHANGED FROM 32 TO 32
OFFSET CHANGED FROM 32 TO 32
OFFSET CHANGED FROM 32 TO 32
OFFSET CHANGED FROM 32 TO 32
OFFSET CHANGED FROM 32 TO 32
OFFSET CHANGED FROM 32 TO 32
OFFSET CHANGED FROM 32 TO 32
OFFSET CHANGED FROM 32 TO 32
OFFSET CHANGED FROM 32 TO 32
OFFSET CHANGED FROM 32 TO 32
OFFSET CHANGED FROM 32 TO 32
OFFSET CHANGED FROM 32 TO 32
OFFSET CHANGED FROM 32 TO 32
OFFSET CHANGED FROM 32 TO 32
OFFSET CHANGED FROM 32 TO 32
OFFSET CHANGED FROM 32 TO 32
OFFSET CHANGED FROM 32 TO 32
OFFSET CHANGED FROM 32 TO 32
OFFSET CHANGED FROM 32 TO 32
OFFSET CHANGED FROM 32 TO 32
OFFSET CHANGED FROM 32 TO 32
OFFSET CHANGED FROM 32 TO 32
OFFSET CHANGED FROM 32 TO 32
OFFSET CHANGED FROM 32 TO 32
OFFSET CHANGED FROM 32 TO 32
OFFSET CHANGED FROM 32 TO 32
OFFSET CHANGED FROM 32 TO 32
OFFSET CHANGED FROM 32 TO 32
OFFSET CHANGED FROM 32 TO 32
OFFSET CHANGED FROM 32 TO 32
OFFSET CHANGED FROM 32 TO 32
OFFSET CHANGED FROM 32 TO 32
OFFSET CHANGED FROM 32 TO 32
OFFSET CHANGED FROM 32 TO 32
OFFSET CHANGED FROM 32 TO 32
OFFSET CHANGED FROM 32 TO 32
OFFSET CHANGED FROM 32 TO 32
OFFSET CHANGED FROM 32 TO 32
OFFSET CHANGED FROM 32 TO 32
OFFSET CHANGED FROM 32 TO 32
OFFSET CHANGED FROM 32 TO 32
OFFSET CHANGED FROM 32 TO 32
OFFSET CHANGED FROM 32 TO 32
OFFSET CHANGED FROM 32 TO 32
Heartbeat CPU 0 instructions: 240000003 cycles: 328370178 heartbeat IPC: 0.526052 cumulative IPC: 0.614927 (Simulation time: 0 hr 11 min 53 sec) 
OFFSET CHANGED FROM 32 TO 32
OFFSET CHANGED FROM 32 TO 32
OFFSET CHANGED FROM 32 TO 32
OFFSET CHANGED FROM 32 TO 32
OFFSET CHANGED FROM 32 TO 32
OFFSET CHANGED FROM 32 TO 32
OFFSET CHANGED FROM 32 TO 32
OFFSET CHANGED FROM 32 TO 32
OFFSET CHANGED FROM 32 TO 32
OFFSET CHANGED FROM 32 TO 32
OFFSET CHANGED FROM 32 TO 32
OFFSET CHANGED FROM 32 TO 32
OFFSET CHANGED FROM 32 TO 32
OFFSET CHANGED FROM 32 TO 32
OFFSET CHANGED FROM 32 TO 32
OFFSET CHANGED FROM 32 TO 32
OFFSET CHANGED FROM 32 TO 32
OFFSET CHANGED FROM 32 TO 32
OFFSET CHANGED FROM 32 TO 32
OFFSET CHANGED FROM 32 TO 32
OFFSET CHANGED FROM 32 TO 32
OFFSET CHANGED FROM 32 TO 32
OFFSET CHANGED FROM 32 TO 32
OFFSET CHANGED FROM 32 TO 32
OFFSET CHANGED FROM 32 TO 32
OFFSET CHANGED FROM 32 TO 32
OFFSET CHANGED FROM 32 TO 32
OFFSET CHANGED FROM 32 TO 32
OFFSET CHANGED FROM 32 TO 32
OFFSET CHANGED FROM 32 TO 32
OFFSET CHANGED FROM 32 TO 32
OFFSET CHANGED FROM 32 TO 32
OFFSET CHANGED FROM 32 TO 32
OFFSET CHANGED FROM 32 TO 32
OFFSET CHANGED FROM 32 TO 32
OFFSET CHANGED FROM 32 TO 32
OFFSET CHANGED FROM 32 TO 32
OFFSET CHANGED FROM 32 TO 32
OFFSET CHANGED FROM 32 TO 32
OFFSET CHANGED FROM 32 TO 32
OFFSET CHANGED FROM 32 TO 32
OFFSET CHANGED FROM 32 TO 32
OFFSET CHANGED FROM 32 TO 32
OFFSET CHANGED FROM 32 TO 32
OFFSET CHANGED FROM 32 TO 32
OFFSET CHANGED FROM 32 TO 32
OFFSET CHANGED FROM 32 TO 32
OFFSET CHANGED FROM 32 TO 32
OFFSET CHANGED FROM 32 TO 32
OFFSET CHANGED FROM 32 TO 32
OFFSET CHANGED FROM 32 TO 32
OFFSET CHANGED FROM 32 TO 32
OFFSET CHANGED FROM 32 TO 32
OFFSET CHANGED FROM 32 TO 32
OFFSET CHANGED FROM 32 TO 32
OFFSET CHANGED FROM 32 TO 3
OFFSET CHANGED FROM 3 TO 2
OFFSET CHANGED FROM 2 TO 2
OFFSET CHANGED FROM 2 TO 6
OFFSET CHANGED FROM 6 TO 8
OFFSET CHANGED FROM 8 TO 13
PREFETCHING INTO L2 w/ PREFETCH SCORE 31 (MSHR OCC = 28)
PREFETCHING INTO L2 w/ PREFETCH SCORE 31 (MSHR OCC = 28)
PREFETCHING INTO L2 w/ PREFETCH SCORE 31 (MSHR OCC = 28)
PREFETCHING INTO L2 w/ PREFETCH SCORE 31 (MSHR OCC = 28)
PREFETCHING INTO L2 w/ PREFETCH SCORE 31 (MSHR OCC = 28)
PREFETCHING INTO L2 w/ PREFETCH SCORE 31 (MSHR OCC = 28)
PREFETCHING INTO L2 w/ PREFETCH SCORE 31 (MSHR OCC = 28)
PREFETCHING INTO L2 w/ PREFETCH SCORE 31 (MSHR OCC = 28)
PREFETCHING INTO L2 w/ PREFETCH SCORE 31 (MSHR OCC = 28)
PREFETCHING INTO L2 w/ PREFETCH SCORE 31 (MSHR OCC = 28)
PREFETCHING INTO L2 w/ PREFETCH SCORE 31 (MSHR OCC = 28)
PREFETCHING INTO L2 w/ PREFETCH SCORE 31 (MSHR OCC = 28)
PREFETCHING INTO L2 w/ PREFETCH SCORE 31 (MSHR OCC = 28)
PREFETCHING INTO L2 w/ PREFETCH SCORE 31 (MSHR OCC = 28)
PREFETCHING INTO L2 w/ PREFETCH SCORE 31 (MSHR OCC = 29)
PREFETCHING INTO L2 w/ PREFETCH SCORE 31 (MSHR OCC = 28)
PREFETCHING INTO L2 w/ PREFETCH SCORE 31 (MSHR OCC = 28)
PREFETCHING INTO L2 w/ PREFETCH SCORE 31 (MSHR OCC = 28)
PREFETCHING INTO L2 w/ PREFETCH SCORE 31 (MSHR OCC = 28)
PREFETCHING INTO L2 w/ PREFETCH SCORE 31 (MSHR OCC = 28)
PREFETCHING INTO L2 w/ PREFETCH SCORE 31 (MSHR OCC = 28)
PREFETCHING INTO L2 w/ PREFETCH SCORE 31 (MSHR OCC = 28)
PREFETCHING INTO L2 w/ PREFETCH SCORE 31 (MSHR OCC = 29)
PREFETCHING INTO L2 w/ PREFETCH SCORE 31 (MSHR OCC = 28)
PREFETCHING INTO L2 w/ PREFETCH SCORE 31 (MSHR OCC = 28)
PREFETCHING INTO L2 w/ PREFETCH SCORE 31 (MSHR OCC = 28)
PREFETCHING INTO L2 w/ PREFETCH SCORE 31 (MSHR OCC = 28)
PREFETCHING INTO L2 w/ PREFETCH SCORE 31 (MSHR OCC = 28)
OFFSET CHANGED FROM 13 TO 9
PREFETCHING INTO L2 w/ PREFETCH SCORE 31 (MSHR OCC = 28)
OFFSET CHANGED FROM 9 TO 6
OFFSET CHANGED FROM 6 TO 6
OFFSET CHANGED FROM 6 TO 10
PREFETCHING INTO L2 w/ PREFETCH SCORE 31 (MSHR OCC = 28)
PREFETCHING INTO L2 w/ PREFETCH SCORE 31 (MSHR OCC = 28)
PREFETCHING INTO L2 w/ PREFETCH SCORE 31 (MSHR OCC = 28)
OFFSET CHANGED FROM 10 TO 9
PREFETCHING INTO L2 w/ PREFETCH SCORE 31 (MSHR OCC = 28)
OFFSET CHANGED FROM 9 TO 6
OFFSET CHANGED FROM 6 TO 5
OFFSET CHANGED FROM 5 TO 8
OFFSET CHANGED FROM 8 TO 6
OFFSET CHANGED FROM 6 TO 6
OFFSET CHANGED FROM 6 TO 7
OFFSET CHANGED FROM 7 TO 9
OFFSET CHANGED FROM 9 TO 11
PREFETCHING INTO L2 w/ PREFETCH SCORE 31 (MSHR OCC = 29)
PREFETCHING INTO L2 w/ PREFETCH SCORE 31 (MSHR OCC = 29)
PREFETCHING INTO L2 w/ PREFETCH SCORE 31 (MSHR OCC = 29)
PREFETCHING INTO L2 w/ PREFETCH SCORE 31 (MSHR OCC = 28)
PREFETCHING INTO L2 w/ PREFETCH SCORE 31 (MSHR OCC = 28)
PREFETCHING INTO L2 w/ PREFETCH SCORE 31 (MSHR OCC = 28)
PREFETCHING INTO L2 w/ PREFETCH SCORE 31 (MSHR OCC = 28)
PREFETCHING INTO L2 w/ PREFETCH SCORE 31 (MSHR OCC = 28)
PREFETCHING INTO L2 w/ PREFETCH SCORE 31 (MSHR OCC = 28)
PREFETCHING INTO L2 w/ PREFETCH SCORE 31 (MSHR OCC = 28)
PREFETCHING INTO L2 w/ PREFETCH SCORE 31 (MSHR OCC = 28)
OFFSET CHANGED FROM 11 TO 10
PREFETCHING INTO L2 w/ PREFETCH SCORE 31 (MSHR OCC = 28)
PREFETCHING INTO L2 w/ PREFETCH SCORE 31 (MSHR OCC = 28)
OFFSET CHANGED FROM 10 TO 9
PREFETCHING INTO L2 w/ PREFETCH SCORE 31 (MSHR OCC = 28)
OFFSET CHANGED FROM 9 TO 11
PREFETCHING INTO L2 w/ PREFETCH SCORE 31 (MSHR OCC = 29)
PREFETCHING INTO L2 w/ PREFETCH SCORE 31 (MSHR OCC = 28)
PREFETCHING INTO L2 w/ PREFETCH SCORE 31 (MSHR OCC = 28)
PREFETCHING INTO L2 w/ PREFETCH SCORE 31 (MSHR OCC = 28)
PREFETCHING INTO L2 w/ PREFETCH SCORE 31 (MSHR OCC = 28)
PREFETCHING INTO L2 w/ PREFETCH SCORE 31 (MSHR OCC = 29)
PREFETCHING INTO L2 w/ PREFETCH SCORE 31 (MSHR OCC = 28)
PREFETCHING INTO L2 w/ PREFETCH SCORE 31 (MSHR OCC = 28)
PREFETCHING INTO L2 w/ PREFETCH SCORE 31 (MSHR OCC = 28)
PREFETCHING INTO L2 w/ PREFETCH SCORE 31 (MSHR OCC = 28)
PREFETCHING INTO L2 w/ PREFETCH SCORE 31 (MSHR OCC = 28)
PREFETCHING INTO L2 w/ PREFETCH SCORE 31 (MSHR OCC = 28)
PREFETCHING INTO L2 w/ PREFETCH SCORE 31 (MSHR OCC = 28)
PREFETCHING INTO L2 w/ PREFETCH SCORE 31 (MSHR OCC = 28)
PREFETCHING INTO L2 w/ PREFETCH SCORE 31 (MSHR OCC = 29)
OFFSET CHANGED FROM 11 TO 10
PREFETCHING INTO L2 w/ PREFETCH SCORE 31 (MSHR OCC = 29)
PREFETCHING INTO L2 w/ PREFETCH SCORE 31 (MSHR OCC = 28)
OFFSET CHANGED FROM 10 TO 7
OFFSET CHANGED FROM 7 TO 6
OFFSET CHANGED FROM 6 TO 5
OFFSET CHANGED FROM 5 TO 8
OFFSET CHANGED FROM 8 TO 6
OFFSET CHANGED FROM 6 TO 5
OFFSET CHANGED FROM 5 TO 5
OFFSET CHANGED FROM 5 TO 6
OFFSET CHANGED FROM 6 TO 8
OFFSET CHANGED FROM 8 TO 10
PREFETCHING INTO L2 w/ PREFETCH SCORE 31 (MSHR OCC = 28)
PREFETCHING INTO L2 w/ PREFETCH SCORE 31 (MSHR OCC = 28)
PREFETCHING INTO L2 w/ PREFETCH SCORE 31 (MSHR OCC = 28)
PREFETCHING INTO L2 w/ PREFETCH SCORE 31 (MSHR OCC = 28)
OFFSET CHANGED FROM 10 TO 7
OFFSET CHANGED FROM 7 TO 7
OFFSET CHANGED FROM 7 TO 5
OFFSET CHANGED FROM 5 TO 7
OFFSET CHANGED FROM 7 TO 6
OFFSET CHANGED FROM 6 TO 8
OFFSET CHANGED FROM 8 TO 7
OFFSET CHANGED FROM 7 TO 6
OFFSET CHANGED FROM 6 TO 6
OFFSET CHANGED FROM 6 TO 5
OFFSET CHANGED FROM 5 TO 7
OFFSET CHANGED FROM 7 TO 6
OFFSET CHANGED FROM 6 TO 5
OFFSET CHANGED FROM 5 TO 8
OFFSET CHANGED FROM 8 TO 6
OFFSET CHANGED FROM 6 TO 6
OFFSET CHANGED FROM 6 TO 8
OFFSET CHANGED FROM 8 TO 5
OFFSET CHANGED FROM 5 TO 8
OFFSET CHANGED FROM 8 TO 6
OFFSET CHANGED FROM 6 TO 5
OFFSET CHANGED FROM 5 TO 8
OFFSET CHANGED FROM 8 TO 6
OFFSET CHANGED FROM 6 TO 5
OFFSET CHANGED FROM 5 TO 10
PREFETCHING INTO L2 w/ PREFETCH SCORE 31 (MSHR OCC = 29)
PREFETCHING INTO L2 w/ PREFETCH SCORE 31 (MSHR OCC = 28)
PREFETCHING INTO L2 w/ PREFETCH SCORE 31 (MSHR OCC = 28)
PREFETCHING INTO L2 w/ PREFETCH SCORE 31 (MSHR OCC = 28)
OFFSET CHANGED FROM 10 TO 9
OFFSET CHANGED FROM 9 TO 8
OFFSET CHANGED FROM 8 TO 7
OFFSET CHANGED FROM 7 TO 8
OFFSET CHANGED FROM 8 TO 6
OFFSET CHANGED FROM 6 TO 6
OFFSET CHANGED FROM 6 TO 8
OFFSET CHANGED FROM 8 TO 6
OFFSET CHANGED FROM 6 TO 5
OFFSET CHANGED FROM 5 TO 8
OFFSET CHANGED FROM 8 TO 6
OFFSET CHANGED FROM 6 TO 6
OFFSET CHANGED FROM 6 TO 5
OFFSET CHANGED FROM 5 TO 8
OFFSET CHANGED FROM 8 TO 6
Heartbeat CPU 0 instructions: 250000001 cycles: 348912540 heartbeat IPC: 0.486799 cumulative IPC: 0.60694 (Simulation time: 0 hr 12 min 37 sec) 
OFFSET CHANGED FROM 6 TO 5
OFFSET CHANGED FROM 5 TO 8
OFFSET CHANGED FROM 8 TO 6
OFFSET CHANGED FROM 6 TO 6
OFFSET CHANGED FROM 6 TO 5
OFFSET CHANGED FROM 5 TO 9
OFFSET CHANGED FROM 9 TO 8
OFFSET CHANGED FROM 8 TO 10
PREFETCHING INTO L2 w/ PREFETCH SCORE 31 (MSHR OCC = 28)
OFFSET CHANGED FROM 10 TO 7
OFFSET CHANGED FROM 7 TO 6
OFFSET CHANGED FROM 6 TO 5
OFFSET CHANGED FROM 5 TO 7
OFFSET CHANGED FROM 7 TO 6
OFFSET CHANGED FROM 6 TO 5
OFFSET CHANGED FROM 5 TO 7
OFFSET CHANGED FROM 7 TO 6
OFFSET CHANGED FROM 6 TO 7
OFFSET CHANGED FROM 7 TO 5
OFFSET CHANGED FROM 5 TO 7
OFFSET CHANGED FROM 7 TO 6
OFFSET CHANGED FROM 6 TO 5
OFFSET CHANGED FROM 5 TO 5
OFFSET CHANGED FROM 5 TO 5
OFFSET CHANGED FROM 5 TO 5
OFFSET CHANGED FROM 5 TO 5
OFFSET CHANGED FROM 5 TO 5
OFFSET CHANGED FROM 5 TO 5
OFFSET CHANGED FROM 5 TO 1
OFFSET CHANGED FROM 1 TO 32
OFFSET CHANGED FROM 32 TO 32
OFFSET CHANGED FROM 32 TO 32
OFFSET CHANGED FROM 32 TO 32
OFFSET CHANGED FROM 32 TO 32
OFFSET CHANGED FROM 32 TO 32
OFFSET CHANGED FROM 32 TO 32
OFFSET CHANGED FROM 32 TO 32
OFFSET CHANGED FROM 32 TO 32
OFFSET CHANGED FROM 32 TO 32
OFFSET CHANGED FROM 32 TO 32
OFFSET CHANGED FROM 32 TO 32
OFFSET CHANGED FROM 32 TO 32
OFFSET CHANGED FROM 32 TO 32
OFFSET CHANGED FROM 32 TO 32
OFFSET CHANGED FROM 32 TO 32
OFFSET CHANGED FROM 32 TO 32
OFFSET CHANGED FROM 32 TO 32
OFFSET CHANGED FROM 32 TO 32
OFFSET CHANGED FROM 32 TO 32
OFFSET CHANGED FROM 32 TO 32
OFFSET CHANGED FROM 32 TO 32
OFFSET CHANGED FROM 32 TO 32
OFFSET CHANGED FROM 32 TO 32
OFFSET CHANGED FROM 32 TO 32
OFFSET CHANGED FROM 32 TO 32
OFFSET CHANGED FROM 32 TO 32
OFFSET CHANGED FROM 32 TO 32
OFFSET CHANGED FROM 32 TO 32
OFFSET CHANGED FROM 32 TO 32
OFFSET CHANGED FROM 32 TO 32
OFFSET CHANGED FROM 32 TO 32
OFFSET CHANGED FROM 32 TO 32
OFFSET CHANGED FROM 32 TO 32
OFFSET CHANGED FROM 32 TO 32
OFFSET CHANGED FROM 32 TO 32
OFFSET CHANGED FROM 32 TO 32
OFFSET CHANGED FROM 32 TO 32
OFFSET CHANGED FROM 32 TO 32
OFFSET CHANGED FROM 32 TO 32
OFFSET CHANGED FROM 32 TO 32
OFFSET CHANGED FROM 32 TO 32
OFFSET CHANGED FROM 32 TO 32
OFFSET CHANGED FROM 32 TO 32
OFFSET CHANGED FROM 32 TO 32
OFFSET CHANGED FROM 32 TO 32
OFFSET CHANGED FROM 32 TO 32
OFFSET CHANGED FROM 32 TO 32
OFFSET CHANGED FROM 32 TO 32
OFFSET CHANGED FROM 32 TO 32
OFFSET CHANGED FROM 32 TO 32
OFFSET CHANGED FROM 32 TO 32
OFFSET CHANGED FROM 32 TO 32
OFFSET CHANGED FROM 32 TO 32
OFFSET CHANGED FROM 32 TO 32
OFFSET CHANGED FROM 32 TO 32
OFFSET CHANGED FROM 32 TO 32
OFFSET CHANGED FROM 32 TO 32
OFFSET CHANGED FROM 32 TO 32
OFFSET CHANGED FROM 32 TO 32
OFFSET CHANGED FROM 32 TO 32
OFFSET CHANGED FROM 32 TO 32
OFFSET CHANGED FROM 32 TO 32
OFFSET CHANGED FROM 32 TO 32
OFFSET CHANGED FROM 32 TO 32
OFFSET CHANGED FROM 32 TO 32
Heartbeat CPU 0 instructions: 260000003 cycles: 368526712 heartbeat IPC: 0.509836 cumulative IPC: 0.601484 (Simulation time: 0 hr 13 min 17 sec) 
OFFSET CHANGED FROM 32 TO 32
OFFSET CHANGED FROM 32 TO 32
OFFSET CHANGED FROM 32 TO 32
OFFSET CHANGED FROM 32 TO 32
OFFSET CHANGED FROM 32 TO 32
OFFSET CHANGED FROM 32 TO 32
OFFSET CHANGED FROM 32 TO 32
OFFSET CHANGED FROM 32 TO 32
OFFSET CHANGED FROM 32 TO 32
OFFSET CHANGED FROM 32 TO 32
OFFSET CHANGED FROM 32 TO 32
OFFSET CHANGED FROM 32 TO 32
OFFSET CHANGED FROM 32 TO 32
OFFSET CHANGED FROM 32 TO 32
OFFSET CHANGED FROM 32 TO 32
OFFSET CHANGED FROM 32 TO 32
OFFSET CHANGED FROM 32 TO 32
OFFSET CHANGED FROM 32 TO 32
OFFSET CHANGED FROM 32 TO 32
OFFSET CHANGED FROM 32 TO 32
OFFSET CHANGED FROM 32 TO 32
OFFSET CHANGED FROM 32 TO 32
OFFSET CHANGED FROM 32 TO 32
OFFSET CHANGED FROM 32 TO 32
OFFSET CHANGED FROM 32 TO 32
OFFSET CHANGED FROM 32 TO 32
OFFSET CHANGED FROM 32 TO 32
OFFSET CHANGED FROM 32 TO 32
OFFSET CHANGED FROM 32 TO 32
OFFSET CHANGED FROM 32 TO 32
OFFSET CHANGED FROM 32 TO 32
OFFSET CHANGED FROM 32 TO 32
OFFSET CHANGED FROM 32 TO 32
OFFSET CHANGED FROM 32 TO 32
OFFSET CHANGED FROM 32 TO 32
OFFSET CHANGED FROM 32 TO 32
OFFSET CHANGED FROM 32 TO 32
OFFSET CHANGED FROM 32 TO 32
OFFSET CHANGED FROM 32 TO 32
OFFSET CHANGED FROM 32 TO 32
OFFSET CHANGED FROM 32 TO 32
OFFSET CHANGED FROM 32 TO 32
OFFSET CHANGED FROM 32 TO 32
OFFSET CHANGED FROM 32 TO 32
OFFSET CHANGED FROM 32 TO 32
OFFSET CHANGED FROM 32 TO 32
OFFSET CHANGED FROM 32 TO 32
OFFSET CHANGED FROM 32 TO 32
OFFSET CHANGED FROM 32 TO 32
OFFSET CHANGED FROM 32 TO 32
OFFSET CHANGED FROM 32 TO 32
OFFSET CHANGED FROM 32 TO 32
OFFSET CHANGED FROM 32 TO 32
OFFSET CHANGED FROM 32 TO 32
OFFSET CHANGED FROM 32 TO 32
OFFSET CHANGED FROM 32 TO 32
OFFSET CHANGED FROM 32 TO 32
OFFSET CHANGED FROM 32 TO 32
OFFSET CHANGED FROM 32 TO 32
OFFSET CHANGED FROM 32 TO 32
OFFSET CHANGED FROM 32 TO 32
OFFSET CHANGED FROM 32 TO 32
OFFSET CHANGED FROM 32 TO 32
OFFSET CHANGED FROM 32 TO 32
OFFSET CHANGED FROM 32 TO 32
OFFSET CHANGED FROM 32 TO 32
OFFSET CHANGED FROM 32 TO 32
OFFSET CHANGED FROM 32 TO 32
OFFSET CHANGED FROM 32 TO 32
OFFSET CHANGED FROM 32 TO 32
OFFSET CHANGED FROM 32 TO 32
OFFSET CHANGED FROM 32 TO 32
OFFSET CHANGED FROM 32 TO 32
OFFSET CHANGED FROM 32 TO 32
OFFSET CHANGED FROM 32 TO 32
OFFSET CHANGED FROM 32 TO 32
OFFSET CHANGED FROM 32 TO 32
OFFSET CHANGED FROM 32 TO 32
OFFSET CHANGED FROM 32 TO 32
OFFSET CHANGED FROM 32 TO 32
OFFSET CHANGED FROM 32 TO 32
OFFSET CHANGED FROM 32 TO 32
OFFSET CHANGED FROM 32 TO 32
OFFSET CHANGED FROM 32 TO 32
OFFSET CHANGED FROM 32 TO 32
OFFSET CHANGED FROM 32 TO 32
OFFSET CHANGED FROM 32 TO 32
OFFSET CHANGED FROM 32 TO 32
OFFSET CHANGED FROM 32 TO 32
OFFSET CHANGED FROM 32 TO 32
Heartbeat CPU 0 instructions: 270000003 cycles: 389278670 heartbeat IPC: 0.481882 cumulative IPC: 0.594774 (Simulation time: 0 hr 13 min 52 sec) 
OFFSET CHANGED FROM 32 TO 32
OFFSET CHANGED FROM 32 TO 32
OFFSET CHANGED FROM 32 TO 32
OFFSET CHANGED FROM 32 TO 32
OFFSET CHANGED FROM 32 TO 32
OFFSET CHANGED FROM 32 TO 32
OFFSET CHANGED FROM 32 TO 32
OFFSET CHANGED FROM 32 TO 32
OFFSET CHANGED FROM 32 TO 32
OFFSET CHANGED FROM 32 TO 32
OFFSET CHANGED FROM 32 TO 32
OFFSET CHANGED FROM 32 TO 32
OFFSET CHANGED FROM 32 TO 32
OFFSET CHANGED FROM 32 TO 32
OFFSET CHANGED FROM 32 TO 32
OFFSET CHANGED FROM 32 TO 32
OFFSET CHANGED FROM 32 TO 32
OFFSET CHANGED FROM 32 TO 32
OFFSET CHANGED FROM 32 TO 32
OFFSET CHANGED FROM 32 TO 32
OFFSET CHANGED FROM 32 TO 32
OFFSET CHANGED FROM 32 TO 32
OFFSET CHANGED FROM 32 TO 32
OFFSET CHANGED FROM 32 TO 32
OFFSET CHANGED FROM 32 TO 32
OFFSET CHANGED FROM 32 TO 32
OFFSET CHANGED FROM 32 TO 32
OFFSET CHANGED FROM 32 TO 32
OFFSET CHANGED FROM 32 TO 32
OFFSET CHANGED FROM 32 TO 32
OFFSET CHANGED FROM 32 TO 32
OFFSET CHANGED FROM 32 TO 32
OFFSET CHANGED FROM 32 TO 32
OFFSET CHANGED FROM 32 TO 32
OFFSET CHANGED FROM 32 TO 32
OFFSET CHANGED FROM 32 TO 32
OFFSET CHANGED FROM 32 TO 32
OFFSET CHANGED FROM 32 TO 32
OFFSET CHANGED FROM 32 TO 32
OFFSET CHANGED FROM 32 TO 32
OFFSET CHANGED FROM 32 TO 32
OFFSET CHANGED FROM 32 TO 32
OFFSET CHANGED FROM 32 TO 32
OFFSET CHANGED FROM 32 TO 32
OFFSET CHANGED FROM 32 TO 32
OFFSET CHANGED FROM 32 TO 32
OFFSET CHANGED FROM 32 TO 32
OFFSET CHANGED FROM 32 TO 32
OFFSET CHANGED FROM 32 TO 32
OFFSET CHANGED FROM 32 TO 32
OFFSET CHANGED FROM 32 TO 32
OFFSET CHANGED FROM 32 TO 32
OFFSET CHANGED FROM 32 TO 32
OFFSET CHANGED FROM 32 TO 32
OFFSET CHANGED FROM 32 TO 32
OFFSET CHANGED FROM 32 TO 32
OFFSET CHANGED FROM 32 TO 32
OFFSET CHANGED FROM 32 TO 32
OFFSET CHANGED FROM 32 TO 32
OFFSET CHANGED FROM 32 TO 32
OFFSET CHANGED FROM 32 TO 32
OFFSET CHANGED FROM 32 TO 32
OFFSET CHANGED FROM 32 TO 32
OFFSET CHANGED FROM 32 TO 32
OFFSET CHANGED FROM 32 TO 32
OFFSET CHANGED FROM 32 TO 32
OFFSET CHANGED FROM 32 TO 32
OFFSET CHANGED FROM 32 TO 32
OFFSET CHANGED FROM 32 TO 32
OFFSET CHANGED FROM 32 TO 32
Heartbeat CPU 0 instructions: 280000000 cycles: 407373752 heartbeat IPC: 0.552636 cumulative IPC: 0.592809 (Simulation time: 0 hr 14 min 24 sec) 
OFFSET CHANGED FROM 32 TO 32
OFFSET CHANGED FROM 32 TO 32
OFFSET CHANGED FROM 32 TO 32
OFFSET CHANGED FROM 32 TO 32
OFFSET CHANGED FROM 32 TO 32
OFFSET CHANGED FROM 32 TO 32
OFFSET CHANGED FROM 32 TO 32
OFFSET CHANGED FROM 32 TO 32
OFFSET CHANGED FROM 32 TO 32
OFFSET CHANGED FROM 32 TO 32
OFFSET CHANGED FROM 32 TO 32
OFFSET CHANGED FROM 32 TO 32
OFFSET CHANGED FROM 32 TO 32
OFFSET CHANGED FROM 32 TO 32
OFFSET CHANGED FROM 32 TO 32
OFFSET CHANGED FROM 32 TO 32
OFFSET CHANGED FROM 32 TO 32
OFFSET CHANGED FROM 32 TO 32
OFFSET CHANGED FROM 32 TO 32
OFFSET CHANGED FROM 32 TO 32
OFFSET CHANGED FROM 32 TO 32
OFFSET CHANGED FROM 32 TO 32
OFFSET CHANGED FROM 32 TO 32
OFFSET CHANGED FROM 32 TO 32
OFFSET CHANGED FROM 32 TO 32
OFFSET CHANGED FROM 32 TO 32
OFFSET CHANGED FROM 32 TO 32
OFFSET CHANGED FROM 32 TO 32
OFFSET CHANGED FROM 32 TO 32
OFFSET CHANGED FROM 32 TO 32
OFFSET CHANGED FROM 32 TO 32
OFFSET CHANGED FROM 32 TO 32
OFFSET CHANGED FROM 32 TO 32
OFFSET CHANGED FROM 32 TO 32
OFFSET CHANGED FROM 32 TO 32
OFFSET CHANGED FROM 32 TO 32
OFFSET CHANGED FROM 32 TO 32
OFFSET CHANGED FROM 32 TO 32
OFFSET CHANGED FROM 32 TO 32
OFFSET CHANGED FROM 32 TO 32
Heartbeat CPU 0 instructions: 290000002 cycles: 421240369 heartbeat IPC: 0.721157 cumulative IPC: 0.597238 (Simulation time: 0 hr 14 min 50 sec) 
OFFSET CHANGED FROM 32 TO 32
OFFSET CHANGED FROM 32 TO 32
OFFSET CHANGED FROM 32 TO 32
OFFSET CHANGED FROM 32 TO 32
OFFSET CHANGED FROM 32 TO 32
OFFSET CHANGED FROM 32 TO 32
OFFSET CHANGED FROM 32 TO 32
OFFSET CHANGED FROM 32 TO 32
OFFSET CHANGED FROM 32 TO 32
OFFSET CHANGED FROM 32 TO 32
OFFSET CHANGED FROM 32 TO 32
OFFSET CHANGED FROM 32 TO 32
OFFSET CHANGED FROM 32 TO 32
OFFSET CHANGED FROM 32 TO 32
OFFSET CHANGED FROM 32 TO 32
OFFSET CHANGED FROM 32 TO 32
OFFSET CHANGED FROM 32 TO 32
OFFSET CHANGED FROM 32 TO 32
OFFSET CHANGED FROM 32 TO 32
OFFSET CHANGED FROM 32 TO 32
OFFSET CHANGED FROM 32 TO 32
OFFSET CHANGED FROM 32 TO 32
OFFSET CHANGED FROM 32 TO 32
OFFSET CHANGED FROM 32 TO 32
OFFSET CHANGED FROM 32 TO 32
OFFSET CHANGED FROM 32 TO 32
OFFSET CHANGED FROM 32 TO 32
OFFSET CHANGED FROM 32 TO 32
OFFSET CHANGED FROM 32 TO 32
OFFSET CHANGED FROM 32 TO 32
OFFSET CHANGED FROM 32 TO 32
OFFSET CHANGED FROM 32 TO 32
OFFSET CHANGED FROM 32 TO 32
OFFSET CHANGED FROM 32 TO 32
OFFSET CHANGED FROM 32 TO 32
OFFSET CHANGED FROM 32 TO 32
OFFSET CHANGED FROM 32 TO 32
OFFSET CHANGED FROM 32 TO 32
OFFSET CHANGED FROM 32 TO 32
OFFSET CHANGED FROM 32 TO 32
Heartbeat CPU 0 instructions: 300000002 cycles: 434994315 heartbeat IPC: 0.727064 cumulative IPC: 0.601534 (Simulation time: 0 hr 15 min 17 sec) 
Finished CPU 0 instructions: 250000000 cycles: 415603831 cumulative IPC: 0.601534 (Simulation time: 0 hr 15 min 17 sec) 

ChampSim completed all CPUs

Region of Interest Statistics

CPU 0 cumulative IPC: 0.601534 instructions: 250000000 cycles: 415603831
L1D TOTAL     ACCESS:   55763276  HIT:   50665902  MISS:    5097374
L1D LOAD      ACCESS:   30454490  HIT:   26157138  MISS:    4297352
L1D RFO       ACCESS:   25308786  HIT:   24508764  MISS:     800022
L1D PREFETCH  ACCESS:          0  HIT:          0  MISS:          0
L1D WRITEBACK ACCESS:          0  HIT:          0  MISS:          0
L1D PREFETCH  REQUESTED:          0  ISSUED:          0  USEFUL:          0  USELESS:          0
L1D AVERAGE MISS LATENCY: 149.326 cycles
L1I TOTAL     ACCESS:   45220892  HIT:   45220834  MISS:         58
L1I LOAD      ACCESS:   45220864  HIT:   45220829  MISS:         35
L1I RFO       ACCESS:          0  HIT:          0  MISS:          0
L1I PREFETCH  ACCESS:         28  HIT:          5  MISS:         23
L1I WRITEBACK ACCESS:          0  HIT:          0  MISS:          0
L1I PREFETCH  REQUESTED:         44  ISSUED:         44  USEFUL:         13  USELESS:          0
L1I AVERAGE MISS LATENCY: 190.448 cycles
L2C TOTAL     ACCESS:    8513125  HIT:    3404241  MISS:    5108884
L2C LOAD      ACCESS:    4297385  HIT:    1853760  MISS:    2443625
L2C RFO       ACCESS:     800022  HIT:          1  MISS:     800021
L2C PREFETCH  ACCESS:    1865817  HIT:        798  MISS:    1865019
L2C WRITEBACK ACCESS:    1549901  HIT:    1549682  MISS:        219
L2C PREFETCH  REQUESTED:    2308409  ISSUED:    2308409  USEFUL:    1853698  USELESS:      11346
L2C AVERAGE MISS LATENCY: 227.113 cycles
LLC TOTAL     ACCESS:    6658627  HIT:    1554898  MISS:    5103729
LLC LOAD      ACCESS:    2001579  HIT:       2960  MISS:    1998619
LLC RFO       ACCESS:     800021  HIT:        557  MISS:     799464
LLC PREFETCH  ACCESS:    2307135  HIT:       1506  MISS:    2305629
LLC WRITEBACK ACCESS:    1549892  HIT:    1549875  MISS:         17
LLC PREFETCH  REQUESTED:          0  ISSUED:          0  USEFUL:       2953  USELESS:    2302676
LLC AVERAGE MISS LATENCY: 214.09 cycles
Major fault: 0 Minor fault: 93932
CPU 0 L1I next line prefetcher final stats
CPU 0 L2C best offset prefetcher final stats

DRAM Statistics
 CHANNEL 0
 RQ ROW_BUFFER_HIT:    2353448  ROW_BUFFER_MISS:    2750246
 DBUS_CONGESTED:    1711249
 WQ ROW_BUFFER_HIT:     837640  ROW_BUFFER_MISS:     712248  FULL:          0

 AVG_CONGESTED_CYCLE: 6

CPU 0 Branch Prediction Accuracy: 79.9879% MPKI: 13.2782 Average ROB Occupancy at Mispredict: 65.7083

Branch types
NOT_BRANCH: 233411924 93.3648%
BRANCH_DIRECT_JUMP: 160015 0.064006%
BRANCH_INDIRECT: 0 0%
BRANCH_CONDITIONAL: 12308248 4.9233%
BRANCH_DIRECT_CALL: 2059732 0.823893%
BRANCH_INDIRECT_CALL: 0 0%
BRANCH_RETURN: 2059732 0.823893%
BRANCH_OTHER: 0 0%

