
*** ChampSim Multicore Out-of-Order Simulator ***

Warmup Instructions: 50000000
Simulation Instructions: 250000000
Number of CPUs: 1
LLC sets: 2048
LLC ways: 16
Off-chip DRAM Size: 4096 MB Channels: 1 Width: 64-bit Data Rate: 3200 MT/s

CPU 0 runs /home/wezelis2/ECE511_Project/ChampSim/dpc3_traces/435.gromacs-134B.champsimtrace.xz
CPU 0 Bimodal branch predictor
CPU 0 L1I next line prefetcher
INIT BEST RECENT REQUEST TABLE MODULE
INIT DELAY QUEUE MODULE
INIT PREFETCH THROTTLE MODULE
INIT OFFSET SCORE MODULE
INIT BEST OFFSET PREFETCHER
OFFSET CHANGED FROM 1 TO 4
OFFSET CHANGED FROM 4 TO 5
OFFSET CHANGED FROM 5 TO 3
OFFSET CHANGED FROM 3 TO 5
CHANGING MSHR THRESHOLD FROM 28 TO 10
CHANGING MSHR THRESHOLD FROM 10 TO 11
CHANGING MSHR THRESHOLD FROM 11 TO 13
CHANGING MSHR THRESHOLD FROM 13 TO 15
CHANGING MSHR THRESHOLD FROM 15 TO 16
CHANGING MSHR THRESHOLD FROM 16 TO 18
CHANGING MSHR THRESHOLD FROM 18 TO 19
CHANGING MSHR THRESHOLD FROM 19 TO 21
CHANGING MSHR THRESHOLD FROM 21 TO 23
CHANGING MSHR THRESHOLD FROM 23 TO 24
CHANGING MSHR THRESHOLD FROM 24 TO 26
CHANGING MSHR THRESHOLD FROM 26 TO 28
OFFSET CHANGED FROM 5 TO 5
OFFSET CHANGED FROM 5 TO 1
OFFSET CHANGED FROM 1 TO -11
OFFSET CHANGED FROM -11 TO -7
CHANGING MSHR THRESHOLD FROM 28 TO 26
CHANGING MSHR THRESHOLD FROM 26 TO 24
CHANGING MSHR THRESHOLD FROM 24 TO 23
CHANGING MSHR THRESHOLD FROM 23 TO 21
CHANGING MSHR THRESHOLD FROM 21 TO 19
CHANGING MSHR THRESHOLD FROM 19 TO 18
CHANGING MSHR THRESHOLD FROM 18 TO 16
CHANGING MSHR THRESHOLD FROM 16 TO 15
CHANGING MSHR THRESHOLD FROM 15 TO 13
CHANGING MSHR THRESHOLD FROM 13 TO 11
CHANGING MSHR THRESHOLD FROM 11 TO 10
CHANGING MSHR THRESHOLD FROM 10 TO 8
CHANGING MSHR THRESHOLD FROM 8 TO 6
CHANGING MSHR THRESHOLD FROM 6 TO 5
CHANGING MSHR THRESHOLD FROM 5 TO 3
CHANGING MSHR THRESHOLD FROM 3 TO 2
CHANGING MSHR THRESHOLD FROM 2 TO 3
CHANGING MSHR THRESHOLD FROM 3 TO 5
CHANGING MSHR THRESHOLD FROM 5 TO 6
CHANGING MSHR THRESHOLD FROM 6 TO 8
CHANGING MSHR THRESHOLD FROM 8 TO 10
CHANGING MSHR THRESHOLD FROM 10 TO 11
CHANGING MSHR THRESHOLD FROM 11 TO 13
CHANGING MSHR THRESHOLD FROM 13 TO 15
CHANGING MSHR THRESHOLD FROM 15 TO 16
CHANGING MSHR THRESHOLD FROM 16 TO 18
OFFSET CHANGED FROM -7 TO 4
CHANGING MSHR THRESHOLD FROM 18 TO 16
CHANGING MSHR THRESHOLD FROM 16 TO 15
CHANGING MSHR THRESHOLD FROM 15 TO 13
CHANGING MSHR THRESHOLD FROM 13 TO 11
CHANGING MSHR THRESHOLD FROM 11 TO 10
CHANGING MSHR THRESHOLD FROM 10 TO 8
CHANGING MSHR THRESHOLD FROM 8 TO 6
CHANGING MSHR THRESHOLD FROM 6 TO 5
CHANGING MSHR THRESHOLD FROM 5 TO 3
CHANGING MSHR THRESHOLD FROM 3 TO 2
CHANGING MSHR THRESHOLD FROM 2 TO 3
CHANGING MSHR THRESHOLD FROM 3 TO 5
CHANGING MSHR THRESHOLD FROM 5 TO 6
CHANGING MSHR THRESHOLD FROM 6 TO 8
CHANGING MSHR THRESHOLD FROM 8 TO 10
CHANGING MSHR THRESHOLD FROM 10 TO 11
CHANGING MSHR THRESHOLD FROM 11 TO 13
CHANGING MSHR THRESHOLD FROM 13 TO 15
CHANGING MSHR THRESHOLD FROM 15 TO 16
CHANGING MSHR THRESHOLD FROM 16 TO 18
CHANGING MSHR THRESHOLD FROM 18 TO 19
CHANGING MSHR THRESHOLD FROM 19 TO 21
CHANGING MSHR THRESHOLD FROM 21 TO 23
CHANGING MSHR THRESHOLD FROM 23 TO 21
CHANGING MSHR THRESHOLD FROM 21 TO 19
CHANGING MSHR THRESHOLD FROM 19 TO 18
CHANGING MSHR THRESHOLD FROM 18 TO 16
CHANGING MSHR THRESHOLD FROM 16 TO 15
CHANGING MSHR THRESHOLD FROM 15 TO 13
CHANGING MSHR THRESHOLD FROM 13 TO 11
CHANGING MSHR THRESHOLD FROM 11 TO 10
CHANGING MSHR THRESHOLD FROM 10 TO 8
CHANGING MSHR THRESHOLD FROM 8 TO 6
CHANGING MSHR THRESHOLD FROM 6 TO 5
CHANGING MSHR THRESHOLD FROM 5 TO 3
CHANGING MSHR THRESHOLD FROM 3 TO 2
OFFSET CHANGED FROM 4 TO -1
CHANGING MSHR THRESHOLD FROM 2 TO 3
CHANGING MSHR THRESHOLD FROM 3 TO 5
CHANGING MSHR THRESHOLD FROM 5 TO 6
CHANGING MSHR THRESHOLD FROM 6 TO 8
CHANGING MSHR THRESHOLD FROM 8 TO 10
CHANGING MSHR THRESHOLD FROM 10 TO 11
CHANGING MSHR THRESHOLD FROM 11 TO 13
CHANGING MSHR THRESHOLD FROM 13 TO 15
CHANGING MSHR THRESHOLD FROM 15 TO 16
CHANGING MSHR THRESHOLD FROM 16 TO 18
CHANGING MSHR THRESHOLD FROM 18 TO 19
CHANGING MSHR THRESHOLD FROM 19 TO 21
CHANGING MSHR THRESHOLD FROM 21 TO 23
CHANGING MSHR THRESHOLD FROM 23 TO 24
CHANGING MSHR THRESHOLD FROM 24 TO 23
CHANGING MSHR THRESHOLD FROM 23 TO 21
CHANGING MSHR THRESHOLD FROM 21 TO 19
CHANGING MSHR THRESHOLD FROM 19 TO 18
CHANGING MSHR THRESHOLD FROM 18 TO 16
CHANGING MSHR THRESHOLD FROM 16 TO 15
CHANGING MSHR THRESHOLD FROM 15 TO 13
CHANGING MSHR THRESHOLD FROM 13 TO 11
CHANGING MSHR THRESHOLD FROM 11 TO 10
CHANGING MSHR THRESHOLD FROM 10 TO 8
CHANGING MSHR THRESHOLD FROM 8 TO 6
CHANGING MSHR THRESHOLD FROM 6 TO 5
CHANGING MSHR THRESHOLD FROM 5 TO 3
CHANGING MSHR THRESHOLD FROM 3 TO 2
CHANGING MSHR THRESHOLD FROM 2 TO 3
CHANGING MSHR THRESHOLD FROM 3 TO 5
CHANGING MSHR THRESHOLD FROM 5 TO 6
CHANGING MSHR THRESHOLD FROM 6 TO 8
CHANGING MSHR THRESHOLD FROM 8 TO 10
CHANGING MSHR THRESHOLD FROM 10 TO 11
CHANGING MSHR THRESHOLD FROM 11 TO 13
CHANGING MSHR THRESHOLD FROM 13 TO 15
CHANGING MSHR THRESHOLD FROM 15 TO 16
CHANGING MSHR THRESHOLD FROM 16 TO 18
CHANGING MSHR THRESHOLD FROM 18 TO 19
CHANGING MSHR THRESHOLD FROM 19 TO 21
CHANGING MSHR THRESHOLD FROM 21 TO 23
CHANGING MSHR THRESHOLD FROM 23 TO 24
OFFSET CHANGED FROM -1 TO 4
CHANGING MSHR THRESHOLD FROM 24 TO 23
CHANGING MSHR THRESHOLD FROM 23 TO 21
CHANGING MSHR THRESHOLD FROM 21 TO 19
CHANGING MSHR THRESHOLD FROM 19 TO 18
CHANGING MSHR THRESHOLD FROM 18 TO 16
CHANGING MSHR THRESHOLD FROM 16 TO 15
CHANGING MSHR THRESHOLD FROM 15 TO 13
CHANGING MSHR THRESHOLD FROM 13 TO 11
CHANGING MSHR THRESHOLD FROM 11 TO 10
CHANGING MSHR THRESHOLD FROM 10 TO 8
CHANGING MSHR THRESHOLD FROM 8 TO 6
CHANGING MSHR THRESHOLD FROM 6 TO 5
CHANGING MSHR THRESHOLD FROM 5 TO 3
CHANGING MSHR THRESHOLD FROM 3 TO 2
CHANGING MSHR THRESHOLD FROM 2 TO 3
CHANGING MSHR THRESHOLD FROM 3 TO 5
CHANGING MSHR THRESHOLD FROM 5 TO 6
CHANGING MSHR THRESHOLD FROM 6 TO 8
CHANGING MSHR THRESHOLD FROM 8 TO 10
CHANGING MSHR THRESHOLD FROM 10 TO 11
CHANGING MSHR THRESHOLD FROM 11 TO 13
CHANGING MSHR THRESHOLD FROM 13 TO 15
CHANGING MSHR THRESHOLD FROM 15 TO 16
CHANGING MSHR THRESHOLD FROM 16 TO 18
CHANGING MSHR THRESHOLD FROM 18 TO 19
CHANGING MSHR THRESHOLD FROM 19 TO 18
CHANGING MSHR THRESHOLD FROM 18 TO 16
CHANGING MSHR THRESHOLD FROM 16 TO 15
CHANGING MSHR THRESHOLD FROM 15 TO 13
CHANGING MSHR THRESHOLD FROM 13 TO 11
CHANGING MSHR THRESHOLD FROM 11 TO 10
CHANGING MSHR THRESHOLD FROM 10 TO 8
CHANGING MSHR THRESHOLD FROM 8 TO 6
CHANGING MSHR THRESHOLD FROM 6 TO 5
CHANGING MSHR THRESHOLD FROM 5 TO 3
CHANGING MSHR THRESHOLD FROM 3 TO 2
CHANGING MSHR THRESHOLD FROM 2 TO 3
CHANGING MSHR THRESHOLD FROM 3 TO 5
CHANGING MSHR THRESHOLD FROM 5 TO 6
CHANGING MSHR THRESHOLD FROM 6 TO 8
CHANGING MSHR THRESHOLD FROM 8 TO 10
CHANGING MSHR THRESHOLD FROM 10 TO 11
CHANGING MSHR THRESHOLD FROM 11 TO 13
CHANGING MSHR THRESHOLD FROM 13 TO 15
CHANGING MSHR THRESHOLD FROM 15 TO 16
CHANGING MSHR THRESHOLD FROM 16 TO 18
CHANGING MSHR THRESHOLD FROM 18 TO 19
CHANGING MSHR THRESHOLD FROM 19 TO 21
CHANGING MSHR THRESHOLD FROM 21 TO 23
CHANGING MSHR THRESHOLD FROM 23 TO 24
CHANGING MSHR THRESHOLD FROM 24 TO 26
CHANGING MSHR THRESHOLD FROM 26 TO 28
OFFSET CHANGED FROM 4 TO 1
OFFSET CHANGED FROM 1 TO 5
CHANGING MSHR THRESHOLD FROM 28 TO 10
CHANGING MSHR THRESHOLD FROM 10 TO 11
CHANGING MSHR THRESHOLD FROM 11 TO 13
CHANGING MSHR THRESHOLD FROM 13 TO 15
CHANGING MSHR THRESHOLD FROM 15 TO 16
CHANGING MSHR THRESHOLD FROM 16 TO 18
CHANGING MSHR THRESHOLD FROM 18 TO 19
CHANGING MSHR THRESHOLD FROM 19 TO 21
CHANGING MSHR THRESHOLD FROM 21 TO 23
CHANGING MSHR THRESHOLD FROM 23 TO 24
CHANGING MSHR THRESHOLD FROM 24 TO 26
CHANGING MSHR THRESHOLD FROM 26 TO 28
CHANGING MSHR THRESHOLD FROM 28 TO 26
CHANGING MSHR THRESHOLD FROM 26 TO 24
CHANGING MSHR THRESHOLD FROM 24 TO 23
CHANGING MSHR THRESHOLD FROM 23 TO 21
CHANGING MSHR THRESHOLD FROM 21 TO 19
CHANGING MSHR THRESHOLD FROM 19 TO 18
CHANGING MSHR THRESHOLD FROM 18 TO 16
CHANGING MSHR THRESHOLD FROM 16 TO 15
CHANGING MSHR THRESHOLD FROM 15 TO 13
CHANGING MSHR THRESHOLD FROM 13 TO 11
CHANGING MSHR THRESHOLD FROM 11 TO 10
CHANGING MSHR THRESHOLD FROM 10 TO 8
CHANGING MSHR THRESHOLD FROM 8 TO 6
CHANGING MSHR THRESHOLD FROM 6 TO 5
CHANGING MSHR THRESHOLD FROM 5 TO 3
CHANGING MSHR THRESHOLD FROM 3 TO 2
CHANGING MSHR THRESHOLD FROM 2 TO 3
CHANGING MSHR THRESHOLD FROM 3 TO 5
CHANGING MSHR THRESHOLD FROM 5 TO 6
CHANGING MSHR THRESHOLD FROM 6 TO 8
CHANGING MSHR THRESHOLD FROM 8 TO 10
CHANGING MSHR THRESHOLD FROM 10 TO 11
CHANGING MSHR THRESHOLD FROM 11 TO 13
CHANGING MSHR THRESHOLD FROM 13 TO 15
CHANGING MSHR THRESHOLD FROM 15 TO 16
CHANGING MSHR THRESHOLD FROM 16 TO 18
CHANGING MSHR THRESHOLD FROM 18 TO 16
CHANGING MSHR THRESHOLD FROM 16 TO 15
CHANGING MSHR THRESHOLD FROM 15 TO 13
CHANGING MSHR THRESHOLD FROM 13 TO 11
CHANGING MSHR THRESHOLD FROM 11 TO 10
CHANGING MSHR THRESHOLD FROM 10 TO 8
CHANGING MSHR THRESHOLD FROM 8 TO 6
CHANGING MSHR THRESHOLD FROM 6 TO 5
CHANGING MSHR THRESHOLD FROM 5 TO 3
CHANGING MSHR THRESHOLD FROM 3 TO 2
OFFSET CHANGED FROM 5 TO 1
CHANGING MSHR THRESHOLD FROM 2 TO MAX 28
OFFSET CHANGED FROM 1 TO -1
CHANGING MSHR THRESHOLD FROM 28 TO 19
CHANGING MSHR THRESHOLD FROM 19 TO 18
CHANGING MSHR THRESHOLD FROM 18 TO 16
CHANGING MSHR THRESHOLD FROM 16 TO 15
CHANGING MSHR THRESHOLD FROM 15 TO 13
CHANGING MSHR THRESHOLD FROM 13 TO 11
CHANGING MSHR THRESHOLD FROM 11 TO 10
CHANGING MSHR THRESHOLD FROM 10 TO 8
CHANGING MSHR THRESHOLD FROM 8 TO 6
CHANGING MSHR THRESHOLD FROM 6 TO 5
CHANGING MSHR THRESHOLD FROM 5 TO 3
CHANGING MSHR THRESHOLD FROM 3 TO 2
CHANGING MSHR THRESHOLD FROM 2 TO 3
CHANGING MSHR THRESHOLD FROM 3 TO 5
CHANGING MSHR THRESHOLD FROM 5 TO 6
CHANGING MSHR THRESHOLD FROM 6 TO 8
CHANGING MSHR THRESHOLD FROM 8 TO 10
CHANGING MSHR THRESHOLD FROM 10 TO 11
CHANGING MSHR THRESHOLD FROM 11 TO 13
CHANGING MSHR THRESHOLD FROM 13 TO 11
CHANGING MSHR THRESHOLD FROM 11 TO 10
CHANGING MSHR THRESHOLD FROM 10 TO 8
CHANGING MSHR THRESHOLD FROM 8 TO 6
CHANGING MSHR THRESHOLD FROM 6 TO 5
CHANGING MSHR THRESHOLD FROM 5 TO 3
CHANGING MSHR THRESHOLD FROM 3 TO 2
OFFSET CHANGED FROM -1 TO 2
CHANGING MSHR THRESHOLD FROM 2 TO 3
CHANGING MSHR THRESHOLD FROM 3 TO 5
CHANGING MSHR THRESHOLD FROM 5 TO 6
CHANGING MSHR THRESHOLD FROM 6 TO 8
CHANGING MSHR THRESHOLD FROM 8 TO 10
CHANGING MSHR THRESHOLD FROM 10 TO 11
CHANGING MSHR THRESHOLD FROM 11 TO 13
CHANGING MSHR THRESHOLD FROM 13 TO 15
CHANGING MSHR THRESHOLD FROM 15 TO 16
CHANGING MSHR THRESHOLD FROM 16 TO 18
CHANGING MSHR THRESHOLD FROM 18 TO 19
CHANGING MSHR THRESHOLD FROM 19 TO 21
CHANGING MSHR THRESHOLD FROM 21 TO 23
CHANGING MSHR THRESHOLD FROM 23 TO 24
CHANGING MSHR THRESHOLD FROM 24 TO 26
CHANGING MSHR THRESHOLD FROM 26 TO 28
CHANGING MSHR THRESHOLD FROM 28 TO 26
CHANGING MSHR THRESHOLD FROM 26 TO 24
CHANGING MSHR THRESHOLD FROM 24 TO 23
CHANGING MSHR THRESHOLD FROM 23 TO 21
CHANGING MSHR THRESHOLD FROM 21 TO 19
CHANGING MSHR THRESHOLD FROM 19 TO 18
CHANGING MSHR THRESHOLD FROM 18 TO 16
CHANGING MSHR THRESHOLD FROM 16 TO 15
CHANGING MSHR THRESHOLD FROM 15 TO 13
CHANGING MSHR THRESHOLD FROM 13 TO 11
CHANGING MSHR THRESHOLD FROM 11 TO 10
CHANGING MSHR THRESHOLD FROM 10 TO 8
CHANGING MSHR THRESHOLD FROM 8 TO 6
CHANGING MSHR THRESHOLD FROM 6 TO 5
CHANGING MSHR THRESHOLD FROM 5 TO 3
CHANGING MSHR THRESHOLD FROM 3 TO 2
OFFSET CHANGED FROM 2 TO 4
CHANGING MSHR THRESHOLD FROM 2 TO 3
CHANGING MSHR THRESHOLD FROM 3 TO 5
CHANGING MSHR THRESHOLD FROM 5 TO 6
CHANGING MSHR THRESHOLD FROM 6 TO 8
CHANGING MSHR THRESHOLD FROM 8 TO 10
CHANGING MSHR THRESHOLD FROM 10 TO 11
CHANGING MSHR THRESHOLD FROM 11 TO 13
CHANGING MSHR THRESHOLD FROM 13 TO 15
CHANGING MSHR THRESHOLD FROM 15 TO 16
CHANGING MSHR THRESHOLD FROM 16 TO 15
CHANGING MSHR THRESHOLD FROM 15 TO 13
CHANGING MSHR THRESHOLD FROM 13 TO 11
CHANGING MSHR THRESHOLD FROM 11 TO 10
CHANGING MSHR THRESHOLD FROM 10 TO 8
CHANGING MSHR THRESHOLD FROM 8 TO 6
CHANGING MSHR THRESHOLD FROM 6 TO 5
CHANGING MSHR THRESHOLD FROM 5 TO 3
CHANGING MSHR THRESHOLD FROM 3 TO 2
CHANGING MSHR THRESHOLD FROM 2 TO 3
CHANGING MSHR THRESHOLD FROM 3 TO 5
CHANGING MSHR THRESHOLD FROM 5 TO 6
CHANGING MSHR THRESHOLD FROM 6 TO 8
CHANGING MSHR THRESHOLD FROM 8 TO 10
OFFSET CHANGED FROM 4 TO 4
CHANGING MSHR THRESHOLD FROM 10 TO 8
CHANGING MSHR THRESHOLD FROM 8 TO 6
CHANGING MSHR THRESHOLD FROM 6 TO 5
CHANGING MSHR THRESHOLD FROM 5 TO 6
CHANGING MSHR THRESHOLD FROM 6 TO 8
CHANGING MSHR THRESHOLD FROM 8 TO 10
CHANGING MSHR THRESHOLD FROM 10 TO 11
CHANGING MSHR THRESHOLD FROM 11 TO 13
CHANGING MSHR THRESHOLD FROM 13 TO 15
CHANGING MSHR THRESHOLD FROM 15 TO 16
CHANGING MSHR THRESHOLD FROM 16 TO 18
CHANGING MSHR THRESHOLD FROM 18 TO 19
CHANGING MSHR THRESHOLD FROM 19 TO 21
CHANGING MSHR THRESHOLD FROM 21 TO 23
CHANGING MSHR THRESHOLD FROM 23 TO 24
CHANGING MSHR THRESHOLD FROM 24 TO 26
CHANGING MSHR THRESHOLD FROM 26 TO 28
CHANGING MSHR THRESHOLD FROM 28 TO 26
CHANGING MSHR THRESHOLD FROM 26 TO 24
CHANGING MSHR THRESHOLD FROM 24 TO 23
CHANGING MSHR THRESHOLD FROM 23 TO 21
CHANGING MSHR THRESHOLD FROM 21 TO 19
CHANGING MSHR THRESHOLD FROM 19 TO 18
CHANGING MSHR THRESHOLD FROM 18 TO 16
CHANGING MSHR THRESHOLD FROM 16 TO 15
CHANGING MSHR THRESHOLD FROM 15 TO 13
CHANGING MSHR THRESHOLD FROM 13 TO 11
CHANGING MSHR THRESHOLD FROM 11 TO 10
CHANGING MSHR THRESHOLD FROM 10 TO 8
CHANGING MSHR THRESHOLD FROM 8 TO 6
CHANGING MSHR THRESHOLD FROM 6 TO 5
CHANGING MSHR THRESHOLD FROM 5 TO 3
CHANGING MSHR THRESHOLD FROM 3 TO 2
OFFSET CHANGED FROM 4 TO 1
CHANGING MSHR THRESHOLD FROM 2 TO MAX 28
OFFSET CHANGED FROM 1 TO 2
OFFSET CHANGED FROM 2 TO -3
OFFSET CHANGED FROM -3 TO 2
Heartbeat CPU 0 instructions: 10000002 cycles: 3714190 heartbeat IPC: 2.69238 cumulative IPC: 2.69238 (Simulation time: 0 hr 0 min 28 sec) 
OFFSET CHANGED FROM 2 TO 5
CHANGING MSHR THRESHOLD FROM 28 TO 26
CHANGING MSHR THRESHOLD FROM 26 TO 24
CHANGING MSHR THRESHOLD FROM 24 TO 23
CHANGING MSHR THRESHOLD FROM 23 TO 21
CHANGING MSHR THRESHOLD FROM 21 TO 19
CHANGING MSHR THRESHOLD FROM 19 TO 18
CHANGING MSHR THRESHOLD FROM 18 TO 16
CHANGING MSHR THRESHOLD FROM 16 TO 15
CHANGING MSHR THRESHOLD FROM 15 TO 13
CHANGING MSHR THRESHOLD FROM 13 TO 11
CHANGING MSHR THRESHOLD FROM 11 TO 10
CHANGING MSHR THRESHOLD FROM 10 TO 8
CHANGING MSHR THRESHOLD FROM 8 TO 6
CHANGING MSHR THRESHOLD FROM 6 TO 5
CHANGING MSHR THRESHOLD FROM 5 TO 3
CHANGING MSHR THRESHOLD FROM 3 TO 2
CHANGING MSHR THRESHOLD FROM 2 TO 3
CHANGING MSHR THRESHOLD FROM 3 TO 5
CHANGING MSHR THRESHOLD FROM 5 TO 6
CHANGING MSHR THRESHOLD FROM 6 TO 8
CHANGING MSHR THRESHOLD FROM 8 TO 10
CHANGING MSHR THRESHOLD FROM 10 TO 11
OFFSET CHANGED FROM 5 TO 1
CHANGING MSHR THRESHOLD FROM 11 TO 10
CHANGING MSHR THRESHOLD FROM 10 TO 8
CHANGING MSHR THRESHOLD FROM 8 TO 6
CHANGING MSHR THRESHOLD FROM 6 TO 5
CHANGING MSHR THRESHOLD FROM 5 TO 3
CHANGING MSHR THRESHOLD FROM 3 TO 2
CHANGING MSHR THRESHOLD FROM 2 TO 3
CHANGING MSHR THRESHOLD FROM 3 TO 5
CHANGING MSHR THRESHOLD FROM 5 TO 6
CHANGING MSHR THRESHOLD FROM 6 TO 8
CHANGING MSHR THRESHOLD FROM 8 TO 10
CHANGING MSHR THRESHOLD FROM 10 TO 11
CHANGING MSHR THRESHOLD FROM 11 TO 13
CHANGING MSHR THRESHOLD FROM 13 TO 15
CHANGING MSHR THRESHOLD FROM 15 TO 16
CHANGING MSHR THRESHOLD FROM 16 TO 18
CHANGING MSHR THRESHOLD FROM 18 TO 19
CHANGING MSHR THRESHOLD FROM 19 TO 21
CHANGING MSHR THRESHOLD FROM 21 TO 23
CHANGING MSHR THRESHOLD FROM 23 TO 24
CHANGING MSHR THRESHOLD FROM 24 TO 26
CHANGING MSHR THRESHOLD FROM 26 TO 28
CHANGING MSHR THRESHOLD FROM 28 TO 26
CHANGING MSHR THRESHOLD FROM 26 TO 24
CHANGING MSHR THRESHOLD FROM 24 TO 23
CHANGING MSHR THRESHOLD FROM 23 TO 21
CHANGING MSHR THRESHOLD FROM 21 TO 19
CHANGING MSHR THRESHOLD FROM 19 TO 18
CHANGING MSHR THRESHOLD FROM 18 TO 16
CHANGING MSHR THRESHOLD FROM 16 TO 15
CHANGING MSHR THRESHOLD FROM 15 TO 13
CHANGING MSHR THRESHOLD FROM 13 TO 11
CHANGING MSHR THRESHOLD FROM 11 TO 10
CHANGING MSHR THRESHOLD FROM 10 TO 8
CHANGING MSHR THRESHOLD FROM 8 TO 6
CHANGING MSHR THRESHOLD FROM 6 TO 5
CHANGING MSHR THRESHOLD FROM 5 TO 3
CHANGING MSHR THRESHOLD FROM 3 TO 2
CHANGING MSHR THRESHOLD FROM 2 TO 3
CHANGING MSHR THRESHOLD FROM 3 TO 5
CHANGING MSHR THRESHOLD FROM 5 TO 6
CHANGING MSHR THRESHOLD FROM 6 TO 8
CHANGING MSHR THRESHOLD FROM 8 TO 10
CHANGING MSHR THRESHOLD FROM 10 TO 11
CHANGING MSHR THRESHOLD FROM 11 TO 13
CHANGING MSHR THRESHOLD FROM 13 TO 15
CHANGING MSHR THRESHOLD FROM 15 TO 16
CHANGING MSHR THRESHOLD FROM 16 TO 18
CHANGING MSHR THRESHOLD FROM 18 TO 19
CHANGING MSHR THRESHOLD FROM 19 TO 21
CHANGING MSHR THRESHOLD FROM 21 TO 23
CHANGING MSHR THRESHOLD FROM 23 TO 24
CHANGING MSHR THRESHOLD FROM 24 TO 26
OFFSET CHANGED FROM 1 TO 4
CHANGING MSHR THRESHOLD FROM 26 TO 24
CHANGING MSHR THRESHOLD FROM 24 TO 23
CHANGING MSHR THRESHOLD FROM 23 TO 21
CHANGING MSHR THRESHOLD FROM 21 TO 19
CHANGING MSHR THRESHOLD FROM 19 TO 18
CHANGING MSHR THRESHOLD FROM 18 TO 16
CHANGING MSHR THRESHOLD FROM 16 TO 15
CHANGING MSHR THRESHOLD FROM 15 TO 13
CHANGING MSHR THRESHOLD FROM 13 TO 11
CHANGING MSHR THRESHOLD FROM 11 TO 10
CHANGING MSHR THRESHOLD FROM 10 TO 8
CHANGING MSHR THRESHOLD FROM 8 TO 6
CHANGING MSHR THRESHOLD FROM 6 TO 5
CHANGING MSHR THRESHOLD FROM 5 TO 3
CHANGING MSHR THRESHOLD FROM 3 TO 2
CHANGING MSHR THRESHOLD FROM 2 TO 3
CHANGING MSHR THRESHOLD FROM 3 TO 5
CHANGING MSHR THRESHOLD FROM 5 TO 6
CHANGING MSHR THRESHOLD FROM 6 TO 8
CHANGING MSHR THRESHOLD FROM 8 TO 10
CHANGING MSHR THRESHOLD FROM 10 TO 11
CHANGING MSHR THRESHOLD FROM 11 TO 13
CHANGING MSHR THRESHOLD FROM 13 TO 15
CHANGING MSHR THRESHOLD FROM 15 TO 13
CHANGING MSHR THRESHOLD FROM 13 TO 11
CHANGING MSHR THRESHOLD FROM 11 TO 10
CHANGING MSHR THRESHOLD FROM 10 TO 8
CHANGING MSHR THRESHOLD FROM 8 TO 6
CHANGING MSHR THRESHOLD FROM 6 TO 5
CHANGING MSHR THRESHOLD FROM 5 TO 3
CHANGING MSHR THRESHOLD FROM 3 TO 2
OFFSET CHANGED FROM 4 TO 1
CHANGING MSHR THRESHOLD FROM 2 TO MAX 28
OFFSET CHANGED FROM 1 TO 2
OFFSET CHANGED FROM 2 TO 1
CHANGING MSHR THRESHOLD FROM 28 TO MIN 2
CHANGING MSHR THRESHOLD FROM 2 TO 3
CHANGING MSHR THRESHOLD FROM 3 TO 5
CHANGING MSHR THRESHOLD FROM 5 TO 6
CHANGING MSHR THRESHOLD FROM 6 TO 8
CHANGING MSHR THRESHOLD FROM 8 TO 10
CHANGING MSHR THRESHOLD FROM 10 TO 11
CHANGING MSHR THRESHOLD FROM 11 TO 13
CHANGING MSHR THRESHOLD FROM 13 TO 15
CHANGING MSHR THRESHOLD FROM 15 TO 16
CHANGING MSHR THRESHOLD FROM 16 TO 18
CHANGING MSHR THRESHOLD FROM 18 TO 16
CHANGING MSHR THRESHOLD FROM 16 TO 15
CHANGING MSHR THRESHOLD FROM 15 TO 13
CHANGING MSHR THRESHOLD FROM 13 TO 11
CHANGING MSHR THRESHOLD FROM 11 TO 10
CHANGING MSHR THRESHOLD FROM 10 TO 8
CHANGING MSHR THRESHOLD FROM 8 TO 6
CHANGING MSHR THRESHOLD FROM 6 TO 5
CHANGING MSHR THRESHOLD FROM 5 TO 3
CHANGING MSHR THRESHOLD FROM 3 TO 2
OFFSET CHANGED FROM 1 TO 1
CHANGING MSHR THRESHOLD FROM 2 TO MAX 28
OFFSET CHANGED FROM 1 TO 1
CHANGING MSHR THRESHOLD FROM 28 TO 13
CHANGING MSHR THRESHOLD FROM 13 TO 11
CHANGING MSHR THRESHOLD FROM 11 TO 10
CHANGING MSHR THRESHOLD FROM 10 TO 8
CHANGING MSHR THRESHOLD FROM 8 TO 6
CHANGING MSHR THRESHOLD FROM 6 TO 5
CHANGING MSHR THRESHOLD FROM 5 TO 3
CHANGING MSHR THRESHOLD FROM 3 TO 2
CHANGING MSHR THRESHOLD FROM 2 TO 3
CHANGING MSHR THRESHOLD FROM 3 TO 5
CHANGING MSHR THRESHOLD FROM 5 TO 6
CHANGING MSHR THRESHOLD FROM 6 TO 8
CHANGING MSHR THRESHOLD FROM 8 TO 10
OFFSET CHANGED FROM 1 TO 5
CHANGING MSHR THRESHOLD FROM 10 TO MAX 28
OFFSET CHANGED FROM 5 TO 5
CHANGING MSHR THRESHOLD FROM 28 TO 10
OFFSET CHANGED FROM 5 TO 4
OFFSET CHANGED FROM 4 TO 1
CHANGING MSHR THRESHOLD FROM 10 TO MAX 28
OFFSET CHANGED FROM 1 TO 4
OFFSET CHANGED FROM 4 TO 2
OFFSET CHANGED FROM 2 TO 1
OFFSET CHANGED FROM 1 TO -13
OFFSET CHANGED FROM -13 TO 8
CHANGING MSHR THRESHOLD FROM 28 TO 26
CHANGING MSHR THRESHOLD FROM 26 TO 24
CHANGING MSHR THRESHOLD FROM 24 TO 23
CHANGING MSHR THRESHOLD FROM 23 TO 21
CHANGING MSHR THRESHOLD FROM 21 TO 19
CHANGING MSHR THRESHOLD FROM 19 TO 18
CHANGING MSHR THRESHOLD FROM 18 TO 16
CHANGING MSHR THRESHOLD FROM 16 TO 15
CHANGING MSHR THRESHOLD FROM 15 TO 13
CHANGING MSHR THRESHOLD FROM 13 TO 11
CHANGING MSHR THRESHOLD FROM 11 TO 10
CHANGING MSHR THRESHOLD FROM 10 TO 8
CHANGING MSHR THRESHOLD FROM 8 TO 6
CHANGING MSHR THRESHOLD FROM 6 TO 5
CHANGING MSHR THRESHOLD FROM 5 TO 3
CHANGING MSHR THRESHOLD FROM 3 TO 2
CHANGING MSHR THRESHOLD FROM 2 TO 3
CHANGING MSHR THRESHOLD FROM 3 TO 5
CHANGING MSHR THRESHOLD FROM 5 TO 6
CHANGING MSHR THRESHOLD FROM 6 TO 8
CHANGING MSHR THRESHOLD FROM 8 TO 10
CHANGING MSHR THRESHOLD FROM 10 TO 11
CHANGING MSHR THRESHOLD FROM 11 TO 13
CHANGING MSHR THRESHOLD FROM 13 TO 15
CHANGING MSHR THRESHOLD FROM 15 TO 16
CHANGING MSHR THRESHOLD FROM 16 TO 18
CHANGING MSHR THRESHOLD FROM 18 TO 19
CHANGING MSHR THRESHOLD FROM 19 TO 18
CHANGING MSHR THRESHOLD FROM 18 TO 16
CHANGING MSHR THRESHOLD FROM 16 TO 15
CHANGING MSHR THRESHOLD FROM 15 TO 13
CHANGING MSHR THRESHOLD FROM 13 TO 11
CHANGING MSHR THRESHOLD FROM 11 TO 10
CHANGING MSHR THRESHOLD FROM 10 TO 8
CHANGING MSHR THRESHOLD FROM 8 TO 6
CHANGING MSHR THRESHOLD FROM 6 TO 5
CHANGING MSHR THRESHOLD FROM 5 TO 3
CHANGING MSHR THRESHOLD FROM 3 TO 2
CHANGING MSHR THRESHOLD FROM 2 TO 3
CHANGING MSHR THRESHOLD FROM 3 TO 5
CHANGING MSHR THRESHOLD FROM 5 TO 6
CHANGING MSHR THRESHOLD FROM 6 TO 8
CHANGING MSHR THRESHOLD FROM 8 TO 10
CHANGING MSHR THRESHOLD FROM 10 TO 11
CHANGING MSHR THRESHOLD FROM 11 TO 13
CHANGING MSHR THRESHOLD FROM 13 TO 15
OFFSET CHANGED FROM 8 TO 5
CHANGING MSHR THRESHOLD FROM 15 TO 13
CHANGING MSHR THRESHOLD FROM 13 TO 11
CHANGING MSHR THRESHOLD FROM 11 TO 10
CHANGING MSHR THRESHOLD FROM 10 TO 8
CHANGING MSHR THRESHOLD FROM 8 TO 6
CHANGING MSHR THRESHOLD FROM 6 TO 5
CHANGING MSHR THRESHOLD FROM 5 TO 3
CHANGING MSHR THRESHOLD FROM 3 TO 2
CHANGING MSHR THRESHOLD FROM 2 TO 3
CHANGING MSHR THRESHOLD FROM 3 TO 5
CHANGING MSHR THRESHOLD FROM 5 TO 6
CHANGING MSHR THRESHOLD FROM 6 TO 8
CHANGING MSHR THRESHOLD FROM 8 TO 10
CHANGING MSHR THRESHOLD FROM 10 TO 11
CHANGING MSHR THRESHOLD FROM 11 TO 13
OFFSET CHANGED FROM 5 TO 10
CHANGING MSHR THRESHOLD FROM 13 TO 11
CHANGING MSHR THRESHOLD FROM 11 TO 10
CHANGING MSHR THRESHOLD FROM 10 TO 8
CHANGING MSHR THRESHOLD FROM 8 TO 6
CHANGING MSHR THRESHOLD FROM 6 TO 5
CHANGING MSHR THRESHOLD FROM 5 TO 3
CHANGING MSHR THRESHOLD FROM 3 TO 2
CHANGING MSHR THRESHOLD FROM 2 TO 3
CHANGING MSHR THRESHOLD FROM 3 TO 5
CHANGING MSHR THRESHOLD FROM 5 TO 6
CHANGING MSHR THRESHOLD FROM 6 TO 8
CHANGING MSHR THRESHOLD FROM 8 TO 10
CHANGING MSHR THRESHOLD FROM 10 TO 11
CHANGING MSHR THRESHOLD FROM 11 TO 13
CHANGING MSHR THRESHOLD FROM 13 TO 15
CHANGING MSHR THRESHOLD FROM 15 TO 16
CHANGING MSHR THRESHOLD FROM 16 TO 18
CHANGING MSHR THRESHOLD FROM 18 TO 19
CHANGING MSHR THRESHOLD FROM 19 TO 21
CHANGING MSHR THRESHOLD FROM 21 TO 23
CHANGING MSHR THRESHOLD FROM 23 TO 21
CHANGING MSHR THRESHOLD FROM 21 TO 19
CHANGING MSHR THRESHOLD FROM 19 TO 18
CHANGING MSHR THRESHOLD FROM 18 TO 16
CHANGING MSHR THRESHOLD FROM 16 TO 15
CHANGING MSHR THRESHOLD FROM 15 TO 13
CHANGING MSHR THRESHOLD FROM 13 TO 11
CHANGING MSHR THRESHOLD FROM 11 TO 10
CHANGING MSHR THRESHOLD FROM 10 TO 8
CHANGING MSHR THRESHOLD FROM 8 TO 6
CHANGING MSHR THRESHOLD FROM 6 TO 5
CHANGING MSHR THRESHOLD FROM 5 TO 3
CHANGING MSHR THRESHOLD FROM 3 TO 2
OFFSET CHANGED FROM 10 TO 4
CHANGING MSHR THRESHOLD FROM 2 TO 3
CHANGING MSHR THRESHOLD FROM 3 TO 5
CHANGING MSHR THRESHOLD FROM 5 TO 6
CHANGING MSHR THRESHOLD FROM 6 TO 8
CHANGING MSHR THRESHOLD FROM 8 TO 10
CHANGING MSHR THRESHOLD FROM 10 TO 11
CHANGING MSHR THRESHOLD FROM 11 TO 13
CHANGING MSHR THRESHOLD FROM 13 TO 15
CHANGING MSHR THRESHOLD FROM 15 TO 16
CHANGING MSHR THRESHOLD FROM 16 TO 18
CHANGING MSHR THRESHOLD FROM 18 TO 19
CHANGING MSHR THRESHOLD FROM 19 TO 18
CHANGING MSHR THRESHOLD FROM 18 TO 16
CHANGING MSHR THRESHOLD FROM 16 TO 15
CHANGING MSHR THRESHOLD FROM 15 TO 13
CHANGING MSHR THRESHOLD FROM 13 TO 11
CHANGING MSHR THRESHOLD FROM 11 TO 10
CHANGING MSHR THRESHOLD FROM 10 TO 8
CHANGING MSHR THRESHOLD FROM 8 TO 6
CHANGING MSHR THRESHOLD FROM 6 TO 5
CHANGING MSHR THRESHOLD FROM 5 TO 3
CHANGING MSHR THRESHOLD FROM 3 TO 2
CHANGING MSHR THRESHOLD FROM 2 TO 3
CHANGING MSHR THRESHOLD FROM 3 TO 5
CHANGING MSHR THRESHOLD FROM 5 TO 6
CHANGING MSHR THRESHOLD FROM 6 TO 8
CHANGING MSHR THRESHOLD FROM 8 TO 10
CHANGING MSHR THRESHOLD FROM 10 TO 11
CHANGING MSHR THRESHOLD FROM 11 TO 13
CHANGING MSHR THRESHOLD FROM 13 TO 15
CHANGING MSHR THRESHOLD FROM 15 TO 16
CHANGING MSHR THRESHOLD FROM 16 TO 15
CHANGING MSHR THRESHOLD FROM 15 TO 13
CHANGING MSHR THRESHOLD FROM 13 TO 11
CHANGING MSHR THRESHOLD FROM 11 TO 10
CHANGING MSHR THRESHOLD FROM 10 TO 8
CHANGING MSHR THRESHOLD FROM 8 TO 6
CHANGING MSHR THRESHOLD FROM 6 TO 5
CHANGING MSHR THRESHOLD FROM 5 TO 3
CHANGING MSHR THRESHOLD FROM 3 TO 2
OFFSET CHANGED FROM 4 TO 1
CHANGING MSHR THRESHOLD FROM 2 TO 3
CHANGING MSHR THRESHOLD FROM 3 TO 5
CHANGING MSHR THRESHOLD FROM 5 TO 6
CHANGING MSHR THRESHOLD FROM 6 TO 8
CHANGING MSHR THRESHOLD FROM 8 TO 10
CHANGING MSHR THRESHOLD FROM 10 TO 11
CHANGING MSHR THRESHOLD FROM 11 TO 13
CHANGING MSHR THRESHOLD FROM 13 TO 15
CHANGING MSHR THRESHOLD FROM 15 TO 16
CHANGING MSHR THRESHOLD FROM 16 TO 18
CHANGING MSHR THRESHOLD FROM 18 TO 16
CHANGING MSHR THRESHOLD FROM 16 TO 15
CHANGING MSHR THRESHOLD FROM 15 TO 13
CHANGING MSHR THRESHOLD FROM 13 TO 11
CHANGING MSHR THRESHOLD FROM 11 TO 10
CHANGING MSHR THRESHOLD FROM 10 TO 8
CHANGING MSHR THRESHOLD FROM 8 TO 6
CHANGING MSHR THRESHOLD FROM 6 TO 5
CHANGING MSHR THRESHOLD FROM 5 TO 3
CHANGING MSHR THRESHOLD FROM 3 TO 2
CHANGING MSHR THRESHOLD FROM 2 TO 3
CHANGING MSHR THRESHOLD FROM 3 TO 5
CHANGING MSHR THRESHOLD FROM 5 TO 6
CHANGING MSHR THRESHOLD FROM 6 TO 8
CHANGING MSHR THRESHOLD FROM 8 TO 10
CHANGING MSHR THRESHOLD FROM 10 TO 11
CHANGING MSHR THRESHOLD FROM 11 TO 13
CHANGING MSHR THRESHOLD FROM 13 TO 15
OFFSET CHANGED FROM 1 TO 2
CHANGING MSHR THRESHOLD FROM 15 TO 13
CHANGING MSHR THRESHOLD FROM 13 TO 11
CHANGING MSHR THRESHOLD FROM 11 TO 10
CHANGING MSHR THRESHOLD FROM 10 TO 8
CHANGING MSHR THRESHOLD FROM 8 TO 6
CHANGING MSHR THRESHOLD FROM 6 TO 5
CHANGING MSHR THRESHOLD FROM 5 TO 3
CHANGING MSHR THRESHOLD FROM 3 TO 2
CHANGING MSHR THRESHOLD FROM 2 TO 3
CHANGING MSHR THRESHOLD FROM 3 TO 5
CHANGING MSHR THRESHOLD FROM 5 TO 6
CHANGING MSHR THRESHOLD FROM 6 TO 8
CHANGING MSHR THRESHOLD FROM 8 TO 10
CHANGING MSHR THRESHOLD FROM 10 TO 11
CHANGING MSHR THRESHOLD FROM 11 TO 13
CHANGING MSHR THRESHOLD FROM 13 TO 15
CHANGING MSHR THRESHOLD FROM 15 TO 16
CHANGING MSHR THRESHOLD FROM 16 TO 18
CHANGING MSHR THRESHOLD FROM 18 TO 19
CHANGING MSHR THRESHOLD FROM 19 TO 21
CHANGING MSHR THRESHOLD FROM 21 TO 23
CHANGING MSHR THRESHOLD FROM 23 TO 24
CHANGING MSHR THRESHOLD FROM 24 TO 26
CHANGING MSHR THRESHOLD FROM 26 TO 28
CHANGING MSHR THRESHOLD FROM 28 TO 26
CHANGING MSHR THRESHOLD FROM 26 TO 24
CHANGING MSHR THRESHOLD FROM 24 TO 23
CHANGING MSHR THRESHOLD FROM 23 TO 21
CHANGING MSHR THRESHOLD FROM 21 TO 19
CHANGING MSHR THRESHOLD FROM 19 TO 18
CHANGING MSHR THRESHOLD FROM 18 TO 16
CHANGING MSHR THRESHOLD FROM 16 TO 15
CHANGING MSHR THRESHOLD FROM 15 TO 13
CHANGING MSHR THRESHOLD FROM 13 TO 11
CHANGING MSHR THRESHOLD FROM 11 TO 10
CHANGING MSHR THRESHOLD FROM 10 TO 8
CHANGING MSHR THRESHOLD FROM 8 TO 6
CHANGING MSHR THRESHOLD FROM 6 TO 5
CHANGING MSHR THRESHOLD FROM 5 TO 3
CHANGING MSHR THRESHOLD FROM 3 TO 2
CHANGING MSHR THRESHOLD FROM 2 TO 3
CHANGING MSHR THRESHOLD FROM 3 TO 5
CHANGING MSHR THRESHOLD FROM 5 TO 6
CHANGING MSHR THRESHOLD FROM 6 TO 8
CHANGING MSHR THRESHOLD FROM 8 TO 10
CHANGING MSHR THRESHOLD FROM 10 TO 11
CHANGING MSHR THRESHOLD FROM 11 TO 13
OFFSET CHANGED FROM 2 TO 1
CHANGING MSHR THRESHOLD FROM 13 TO 15
CHANGING MSHR THRESHOLD FROM 15 TO 16
CHANGING MSHR THRESHOLD FROM 16 TO 15
CHANGING MSHR THRESHOLD FROM 15 TO 13
CHANGING MSHR THRESHOLD FROM 13 TO 11
CHANGING MSHR THRESHOLD FROM 11 TO 10
CHANGING MSHR THRESHOLD FROM 10 TO 8
CHANGING MSHR THRESHOLD FROM 8 TO 6
CHANGING MSHR THRESHOLD FROM 6 TO 5
CHANGING MSHR THRESHOLD FROM 5 TO 3
CHANGING MSHR THRESHOLD FROM 3 TO 2
CHANGING MSHR THRESHOLD FROM 2 TO 3
CHANGING MSHR THRESHOLD FROM 3 TO 5
CHANGING MSHR THRESHOLD FROM 5 TO 6
CHANGING MSHR THRESHOLD FROM 6 TO 8
CHANGING MSHR THRESHOLD FROM 8 TO 10
CHANGING MSHR THRESHOLD FROM 10 TO 11
CHANGING MSHR THRESHOLD FROM 11 TO 13
CHANGING MSHR THRESHOLD FROM 13 TO 15
CHANGING MSHR THRESHOLD FROM 15 TO 16
CHANGING MSHR THRESHOLD FROM 16 TO 18
CHANGING MSHR THRESHOLD FROM 18 TO 19
CHANGING MSHR THRESHOLD FROM 19 TO 21
CHANGING MSHR THRESHOLD FROM 21 TO 19
CHANGING MSHR THRESHOLD FROM 19 TO 18
CHANGING MSHR THRESHOLD FROM 18 TO 16
CHANGING MSHR THRESHOLD FROM 16 TO 15
CHANGING MSHR THRESHOLD FROM 15 TO 13
CHANGING MSHR THRESHOLD FROM 13 TO 11
CHANGING MSHR THRESHOLD FROM 11 TO 10
CHANGING MSHR THRESHOLD FROM 10 TO 8
CHANGING MSHR THRESHOLD FROM 8 TO 6
CHANGING MSHR THRESHOLD FROM 6 TO 5
CHANGING MSHR THRESHOLD FROM 5 TO 3
CHANGING MSHR THRESHOLD FROM 3 TO 2
OFFSET CHANGED FROM 1 TO 4
CHANGING MSHR THRESHOLD FROM 2 TO 3
CHANGING MSHR THRESHOLD FROM 3 TO 5
CHANGING MSHR THRESHOLD FROM 5 TO 6
CHANGING MSHR THRESHOLD FROM 6 TO 8
CHANGING MSHR THRESHOLD FROM 8 TO 10
CHANGING MSHR THRESHOLD FROM 10 TO 11
CHANGING MSHR THRESHOLD FROM 11 TO 13
CHANGING MSHR THRESHOLD FROM 13 TO 15
CHANGING MSHR THRESHOLD FROM 15 TO 16
CHANGING MSHR THRESHOLD FROM 16 TO 18
CHANGING MSHR THRESHOLD FROM 18 TO 19
CHANGING MSHR THRESHOLD FROM 19 TO 18
CHANGING MSHR THRESHOLD FROM 18 TO 16
CHANGING MSHR THRESHOLD FROM 16 TO 15
CHANGING MSHR THRESHOLD FROM 15 TO 13
CHANGING MSHR THRESHOLD FROM 13 TO 11
CHANGING MSHR THRESHOLD FROM 11 TO 10
CHANGING MSHR THRESHOLD FROM 10 TO 8
CHANGING MSHR THRESHOLD FROM 8 TO 6
CHANGING MSHR THRESHOLD FROM 6 TO 5
CHANGING MSHR THRESHOLD FROM 5 TO 3
CHANGING MSHR THRESHOLD FROM 3 TO 2
CHANGING MSHR THRESHOLD FROM 2 TO 3
CHANGING MSHR THRESHOLD FROM 3 TO 5
CHANGING MSHR THRESHOLD FROM 5 TO 6
CHANGING MSHR THRESHOLD FROM 6 TO 8
CHANGING MSHR THRESHOLD FROM 8 TO 10
CHANGING MSHR THRESHOLD FROM 10 TO 11
CHANGING MSHR THRESHOLD FROM 11 TO 13
CHANGING MSHR THRESHOLD FROM 13 TO 15
CHANGING MSHR THRESHOLD FROM 15 TO 16
CHANGING MSHR THRESHOLD FROM 16 TO 18
OFFSET CHANGED FROM 4 TO 1
CHANGING MSHR THRESHOLD FROM 18 TO 16
CHANGING MSHR THRESHOLD FROM 16 TO 15
CHANGING MSHR THRESHOLD FROM 15 TO 13
CHANGING MSHR THRESHOLD FROM 13 TO 11
CHANGING MSHR THRESHOLD FROM 11 TO 10
CHANGING MSHR THRESHOLD FROM 10 TO 8
CHANGING MSHR THRESHOLD FROM 8 TO 6
CHANGING MSHR THRESHOLD FROM 6 TO 5
CHANGING MSHR THRESHOLD FROM 5 TO 3
CHANGING MSHR THRESHOLD FROM 3 TO 2
CHANGING MSHR THRESHOLD FROM 2 TO 3
CHANGING MSHR THRESHOLD FROM 3 TO 5
CHANGING MSHR THRESHOLD FROM 5 TO 6
CHANGING MSHR THRESHOLD FROM 6 TO 8
CHANGING MSHR THRESHOLD FROM 8 TO 10
CHANGING MSHR THRESHOLD FROM 10 TO 11
CHANGING MSHR THRESHOLD FROM 11 TO 13
CHANGING MSHR THRESHOLD FROM 13 TO 15
CHANGING MSHR THRESHOLD FROM 15 TO 16
CHANGING MSHR THRESHOLD FROM 16 TO 18
CHANGING MSHR THRESHOLD FROM 18 TO 16
CHANGING MSHR THRESHOLD FROM 16 TO 15
CHANGING MSHR THRESHOLD FROM 15 TO 13
CHANGING MSHR THRESHOLD FROM 13 TO 11
CHANGING MSHR THRESHOLD FROM 11 TO 10
CHANGING MSHR THRESHOLD FROM 10 TO 8
CHANGING MSHR THRESHOLD FROM 8 TO 6
CHANGING MSHR THRESHOLD FROM 6 TO 5
CHANGING MSHR THRESHOLD FROM 5 TO 3
CHANGING MSHR THRESHOLD FROM 3 TO 2
CHANGING MSHR THRESHOLD FROM 2 TO 3
CHANGING MSHR THRESHOLD FROM 3 TO 5
CHANGING MSHR THRESHOLD FROM 5 TO 6
CHANGING MSHR THRESHOLD FROM 6 TO 8
CHANGING MSHR THRESHOLD FROM 8 TO 10
CHANGING MSHR THRESHOLD FROM 10 TO 11
OFFSET CHANGED FROM 1 TO 3
CHANGING MSHR THRESHOLD FROM 11 TO 10
CHANGING MSHR THRESHOLD FROM 10 TO 8
CHANGING MSHR THRESHOLD FROM 8 TO 6
CHANGING MSHR THRESHOLD FROM 6 TO 5
CHANGING MSHR THRESHOLD FROM 5 TO 3
CHANGING MSHR THRESHOLD FROM 3 TO 2
CHANGING MSHR THRESHOLD FROM 2 TO 3
CHANGING MSHR THRESHOLD FROM 3 TO 5
CHANGING MSHR THRESHOLD FROM 5 TO 6
CHANGING MSHR THRESHOLD FROM 6 TO 8
CHANGING MSHR THRESHOLD FROM 8 TO 10
CHANGING MSHR THRESHOLD FROM 10 TO 11
CHANGING MSHR THRESHOLD FROM 11 TO 13
CHANGING MSHR THRESHOLD FROM 13 TO 15
CHANGING MSHR THRESHOLD FROM 15 TO 16
CHANGING MSHR THRESHOLD FROM 16 TO 18
CHANGING MSHR THRESHOLD FROM 18 TO 19
CHANGING MSHR THRESHOLD FROM 19 TO 21
CHANGING MSHR THRESHOLD FROM 21 TO 23
CHANGING MSHR THRESHOLD FROM 23 TO 24
CHANGING MSHR THRESHOLD FROM 24 TO 26
CHANGING MSHR THRESHOLD FROM 26 TO 28
OFFSET CHANGED FROM 3 TO 1
OFFSET CHANGED FROM 1 TO 1
Heartbeat CPU 0 instructions: 20000001 cycles: 7503553 heartbeat IPC: 2.63897 cumulative IPC: 2.6654 (Simulation time: 0 hr 0 min 56 sec) 
OFFSET CHANGED FROM 1 TO 1
OFFSET CHANGED FROM 1 TO 3
OFFSET CHANGED FROM 3 TO 11
CHANGING MSHR THRESHOLD FROM 28 TO 26
CHANGING MSHR THRESHOLD FROM 26 TO 24
CHANGING MSHR THRESHOLD FROM 24 TO 23
CHANGING MSHR THRESHOLD FROM 23 TO 21
CHANGING MSHR THRESHOLD FROM 21 TO 19
CHANGING MSHR THRESHOLD FROM 19 TO 18
CHANGING MSHR THRESHOLD FROM 18 TO 16
CHANGING MSHR THRESHOLD FROM 16 TO 15
CHANGING MSHR THRESHOLD FROM 15 TO 13
CHANGING MSHR THRESHOLD FROM 13 TO 11
CHANGING MSHR THRESHOLD FROM 11 TO 10
CHANGING MSHR THRESHOLD FROM 10 TO 8
CHANGING MSHR THRESHOLD FROM 8 TO 6
CHANGING MSHR THRESHOLD FROM 6 TO 5
CHANGING MSHR THRESHOLD FROM 5 TO 3
CHANGING MSHR THRESHOLD FROM 3 TO 2
CHANGING MSHR THRESHOLD FROM 2 TO 3
CHANGING MSHR THRESHOLD FROM 3 TO 5
CHANGING MSHR THRESHOLD FROM 5 TO 6
CHANGING MSHR THRESHOLD FROM 6 TO 8
CHANGING MSHR THRESHOLD FROM 8 TO 10
CHANGING MSHR THRESHOLD FROM 10 TO 11
OFFSET CHANGED FROM 11 TO -13
OFFSET CHANGED FROM -13 TO 10
CHANGING MSHR THRESHOLD FROM 11 TO 10
CHANGING MSHR THRESHOLD FROM 10 TO 8
CHANGING MSHR THRESHOLD FROM 8 TO 6
CHANGING MSHR THRESHOLD FROM 6 TO 5
CHANGING MSHR THRESHOLD FROM 5 TO 3
CHANGING MSHR THRESHOLD FROM 3 TO 2
CHANGING MSHR THRESHOLD FROM 2 TO 3
CHANGING MSHR THRESHOLD FROM 3 TO 5
CHANGING MSHR THRESHOLD FROM 5 TO 6
CHANGING MSHR THRESHOLD FROM 6 TO 8
CHANGING MSHR THRESHOLD FROM 8 TO 10
CHANGING MSHR THRESHOLD FROM 10 TO 11
CHANGING MSHR THRESHOLD FROM 11 TO 13
CHANGING MSHR THRESHOLD FROM 13 TO 15
CHANGING MSHR THRESHOLD FROM 15 TO 16
CHANGING MSHR THRESHOLD FROM 16 TO 18
CHANGING MSHR THRESHOLD FROM 18 TO 16
CHANGING MSHR THRESHOLD FROM 16 TO 15
CHANGING MSHR THRESHOLD FROM 15 TO 13
CHANGING MSHR THRESHOLD FROM 13 TO 11
CHANGING MSHR THRESHOLD FROM 11 TO 10
CHANGING MSHR THRESHOLD FROM 10 TO 8
CHANGING MSHR THRESHOLD FROM 8 TO 6
OFFSET CHANGED FROM 10 TO 10
CHANGING MSHR THRESHOLD FROM 6 TO 8
CHANGING MSHR THRESHOLD FROM 8 TO 10
CHANGING MSHR THRESHOLD FROM 10 TO 11
CHANGING MSHR THRESHOLD FROM 11 TO 13
CHANGING MSHR THRESHOLD FROM 13 TO 15
CHANGING MSHR THRESHOLD FROM 15 TO 16
CHANGING MSHR THRESHOLD FROM 16 TO 18
CHANGING MSHR THRESHOLD FROM 18 TO 19
CHANGING MSHR THRESHOLD FROM 19 TO 21
CHANGING MSHR THRESHOLD FROM 21 TO 23
CHANGING MSHR THRESHOLD FROM 23 TO 24
CHANGING MSHR THRESHOLD FROM 24 TO 26
CHANGING MSHR THRESHOLD FROM 26 TO 28
CHANGING MSHR THRESHOLD FROM 28 TO 26
CHANGING MSHR THRESHOLD FROM 26 TO 24
CHANGING MSHR THRESHOLD FROM 24 TO 23
CHANGING MSHR THRESHOLD FROM 23 TO 21
CHANGING MSHR THRESHOLD FROM 21 TO 19
CHANGING MSHR THRESHOLD FROM 19 TO 18
CHANGING MSHR THRESHOLD FROM 18 TO 16
CHANGING MSHR THRESHOLD FROM 16 TO 15
CHANGING MSHR THRESHOLD FROM 15 TO 13
CHANGING MSHR THRESHOLD FROM 13 TO 11
CHANGING MSHR THRESHOLD FROM 11 TO 10
CHANGING MSHR THRESHOLD FROM 10 TO 8
CHANGING MSHR THRESHOLD FROM 8 TO 6
CHANGING MSHR THRESHOLD FROM 6 TO 5
CHANGING MSHR THRESHOLD FROM 5 TO 3
OFFSET CHANGED FROM 10 TO 5
CHANGING MSHR THRESHOLD FROM 3 TO 5
CHANGING MSHR THRESHOLD FROM 5 TO 6
CHANGING MSHR THRESHOLD FROM 6 TO 8
CHANGING MSHR THRESHOLD FROM 8 TO 10
CHANGING MSHR THRESHOLD FROM 10 TO 11
CHANGING MSHR THRESHOLD FROM 11 TO 13
CHANGING MSHR THRESHOLD FROM 13 TO 15
CHANGING MSHR THRESHOLD FROM 15 TO 16
CHANGING MSHR THRESHOLD FROM 16 TO 18
CHANGING MSHR THRESHOLD FROM 18 TO 19
CHANGING MSHR THRESHOLD FROM 19 TO 21
CHANGING MSHR THRESHOLD FROM 21 TO 23
CHANGING MSHR THRESHOLD FROM 23 TO 24
CHANGING MSHR THRESHOLD FROM 24 TO 26
CHANGING MSHR THRESHOLD FROM 26 TO 28
CHANGING MSHR THRESHOLD FROM 28 TO 26
CHANGING MSHR THRESHOLD FROM 26 TO 24
CHANGING MSHR THRESHOLD FROM 24 TO 23
CHANGING MSHR THRESHOLD FROM 23 TO 21
CHANGING MSHR THRESHOLD FROM 21 TO 19
CHANGING MSHR THRESHOLD FROM 19 TO 18
CHANGING MSHR THRESHOLD FROM 18 TO 16
CHANGING MSHR THRESHOLD FROM 16 TO 15
CHANGING MSHR THRESHOLD FROM 15 TO 13
CHANGING MSHR THRESHOLD FROM 13 TO 11
CHANGING MSHR THRESHOLD FROM 11 TO 10
CHANGING MSHR THRESHOLD FROM 10 TO 8
CHANGING MSHR THRESHOLD FROM 8 TO 6
CHANGING MSHR THRESHOLD FROM 6 TO 5
CHANGING MSHR THRESHOLD FROM 5 TO 3
OFFSET CHANGED FROM 5 TO 2
CHANGING MSHR THRESHOLD FROM 3 TO 5
CHANGING MSHR THRESHOLD FROM 5 TO 6
CHANGING MSHR THRESHOLD FROM 6 TO 8
CHANGING MSHR THRESHOLD FROM 8 TO 10
CHANGING MSHR THRESHOLD FROM 10 TO 11
CHANGING MSHR THRESHOLD FROM 11 TO 13
CHANGING MSHR THRESHOLD FROM 13 TO 15
CHANGING MSHR THRESHOLD FROM 15 TO 16
CHANGING MSHR THRESHOLD FROM 16 TO 15
CHANGING MSHR THRESHOLD FROM 15 TO 13
CHANGING MSHR THRESHOLD FROM 13 TO 11
CHANGING MSHR THRESHOLD FROM 11 TO 10
CHANGING MSHR THRESHOLD FROM 10 TO 8
CHANGING MSHR THRESHOLD FROM 8 TO 6
CHANGING MSHR THRESHOLD FROM 6 TO 5
CHANGING MSHR THRESHOLD FROM 5 TO 3
CHANGING MSHR THRESHOLD FROM 3 TO 2
CHANGING MSHR THRESHOLD FROM 2 TO 3
CHANGING MSHR THRESHOLD FROM 3 TO 5
CHANGING MSHR THRESHOLD FROM 5 TO 6
CHANGING MSHR THRESHOLD FROM 6 TO 8
CHANGING MSHR THRESHOLD FROM 8 TO 10
CHANGING MSHR THRESHOLD FROM 10 TO 11
CHANGING MSHR THRESHOLD FROM 11 TO 13
CHANGING MSHR THRESHOLD FROM 13 TO 15
OFFSET CHANGED FROM 2 TO 1
CHANGING MSHR THRESHOLD FROM 15 TO MAX 28
OFFSET CHANGED FROM 1 TO 3
OFFSET CHANGED FROM 3 TO 1
OFFSET CHANGED FROM 1 TO 5
CHANGING MSHR THRESHOLD FROM 28 TO MIN 2
CHANGING MSHR THRESHOLD FROM 2 TO 3
CHANGING MSHR THRESHOLD FROM 3 TO 5
CHANGING MSHR THRESHOLD FROM 5 TO 6
CHANGING MSHR THRESHOLD FROM 6 TO 8
OFFSET CHANGED FROM 5 TO 4
CHANGING MSHR THRESHOLD FROM 8 TO 6
CHANGING MSHR THRESHOLD FROM 6 TO 5
CHANGING MSHR THRESHOLD FROM 5 TO 3
CHANGING MSHR THRESHOLD FROM 3 TO 2
OFFSET CHANGED FROM 4 TO 4
CHANGING MSHR THRESHOLD FROM 2 TO 3
CHANGING MSHR THRESHOLD FROM 3 TO 5
CHANGING MSHR THRESHOLD FROM 5 TO 6
CHANGING MSHR THRESHOLD FROM 6 TO 8
CHANGING MSHR THRESHOLD FROM 8 TO 10
CHANGING MSHR THRESHOLD FROM 10 TO 11
CHANGING MSHR THRESHOLD FROM 11 TO 13
CHANGING MSHR THRESHOLD FROM 13 TO 11
CHANGING MSHR THRESHOLD FROM 11 TO 10
CHANGING MSHR THRESHOLD FROM 10 TO 8
CHANGING MSHR THRESHOLD FROM 8 TO 6
CHANGING MSHR THRESHOLD FROM 6 TO 5
CHANGING MSHR THRESHOLD FROM 5 TO 3
CHANGING MSHR THRESHOLD FROM 3 TO 2
CHANGING MSHR THRESHOLD FROM 2 TO 3
CHANGING MSHR THRESHOLD FROM 3 TO 5
CHANGING MSHR THRESHOLD FROM 5 TO 6
CHANGING MSHR THRESHOLD FROM 6 TO 8
CHANGING MSHR THRESHOLD FROM 8 TO 10
CHANGING MSHR THRESHOLD FROM 10 TO 11
CHANGING MSHR THRESHOLD FROM 11 TO 13
CHANGING MSHR THRESHOLD FROM 13 TO 15
CHANGING MSHR THRESHOLD FROM 15 TO 16
CHANGING MSHR THRESHOLD FROM 16 TO 18
CHANGING MSHR THRESHOLD FROM 18 TO 19
CHANGING MSHR THRESHOLD FROM 19 TO 21
CHANGING MSHR THRESHOLD FROM 21 TO 23
CHANGING MSHR THRESHOLD FROM 23 TO 24
CHANGING MSHR THRESHOLD FROM 24 TO 26
CHANGING MSHR THRESHOLD FROM 26 TO 28
OFFSET CHANGED FROM 4 TO 1
OFFSET CHANGED FROM 1 TO -1
OFFSET CHANGED FROM -1 TO -2
OFFSET CHANGED FROM -2 TO 9
CHANGING MSHR THRESHOLD FROM 28 TO 26
CHANGING MSHR THRESHOLD FROM 26 TO 24
CHANGING MSHR THRESHOLD FROM 24 TO 23
CHANGING MSHR THRESHOLD FROM 23 TO 21
CHANGING MSHR THRESHOLD FROM 21 TO 19
CHANGING MSHR THRESHOLD FROM 19 TO 18
CHANGING MSHR THRESHOLD FROM 18 TO 16
CHANGING MSHR THRESHOLD FROM 16 TO 15
CHANGING MSHR THRESHOLD FROM 15 TO 13
CHANGING MSHR THRESHOLD FROM 13 TO 11
CHANGING MSHR THRESHOLD FROM 11 TO 10
CHANGING MSHR THRESHOLD FROM 10 TO 8
CHANGING MSHR THRESHOLD FROM 8 TO 6
CHANGING MSHR THRESHOLD FROM 6 TO 5
CHANGING MSHR THRESHOLD FROM 5 TO 3
CHANGING MSHR THRESHOLD FROM 3 TO 2
CHANGING MSHR THRESHOLD FROM 2 TO 3
CHANGING MSHR THRESHOLD FROM 3 TO 5
OFFSET CHANGED FROM 9 TO 14
CHANGING MSHR THRESHOLD FROM 5 TO 6
CHANGING MSHR THRESHOLD FROM 6 TO 8
CHANGING MSHR THRESHOLD FROM 8 TO 10
CHANGING MSHR THRESHOLD FROM 10 TO 11
CHANGING MSHR THRESHOLD FROM 11 TO 13
CHANGING MSHR THRESHOLD FROM 13 TO 15
CHANGING MSHR THRESHOLD FROM 15 TO 16
CHANGING MSHR THRESHOLD FROM 16 TO 18
CHANGING MSHR THRESHOLD FROM 18 TO 19
CHANGING MSHR THRESHOLD FROM 19 TO 18
CHANGING MSHR THRESHOLD FROM 18 TO 16
CHANGING MSHR THRESHOLD FROM 16 TO 15
CHANGING MSHR THRESHOLD FROM 15 TO 13
CHANGING MSHR THRESHOLD FROM 13 TO 11
CHANGING MSHR THRESHOLD FROM 11 TO 10
CHANGING MSHR THRESHOLD FROM 10 TO 8
CHANGING MSHR THRESHOLD FROM 8 TO 6
CHANGING MSHR THRESHOLD FROM 6 TO 5
CHANGING MSHR THRESHOLD FROM 5 TO 3
CHANGING MSHR THRESHOLD FROM 3 TO 2
CHANGING MSHR THRESHOLD FROM 2 TO 3
CHANGING MSHR THRESHOLD FROM 3 TO 5
CHANGING MSHR THRESHOLD FROM 5 TO 6
CHANGING MSHR THRESHOLD FROM 6 TO 8
CHANGING MSHR THRESHOLD FROM 8 TO 10
CHANGING MSHR THRESHOLD FROM 10 TO 11
CHANGING MSHR THRESHOLD FROM 11 TO 13
CHANGING MSHR THRESHOLD FROM 13 TO 15
CHANGING MSHR THRESHOLD FROM 15 TO 16
CHANGING MSHR THRESHOLD FROM 16 TO 18
CHANGING MSHR THRESHOLD FROM 18 TO 19
CHANGING MSHR THRESHOLD FROM 19 TO 18
CHANGING MSHR THRESHOLD FROM 18 TO 16
CHANGING MSHR THRESHOLD FROM 16 TO 15
CHANGING MSHR THRESHOLD FROM 15 TO 13
CHANGING MSHR THRESHOLD FROM 13 TO 11
CHANGING MSHR THRESHOLD FROM 11 TO 10
CHANGING MSHR THRESHOLD FROM 10 TO 8
CHANGING MSHR THRESHOLD FROM 8 TO 6
CHANGING MSHR THRESHOLD FROM 6 TO 5
CHANGING MSHR THRESHOLD FROM 5 TO 3
CHANGING MSHR THRESHOLD FROM 3 TO 2
OFFSET CHANGED FROM 14 TO 2
CHANGING MSHR THRESHOLD FROM 2 TO 3
CHANGING MSHR THRESHOLD FROM 3 TO 5
CHANGING MSHR THRESHOLD FROM 5 TO 6
CHANGING MSHR THRESHOLD FROM 6 TO 8
CHANGING MSHR THRESHOLD FROM 8 TO 10
CHANGING MSHR THRESHOLD FROM 10 TO 11
CHANGING MSHR THRESHOLD FROM 11 TO 13
CHANGING MSHR THRESHOLD FROM 13 TO 15
CHANGING MSHR THRESHOLD FROM 15 TO 16
CHANGING MSHR THRESHOLD FROM 16 TO 18
CHANGING MSHR THRESHOLD FROM 18 TO 16
CHANGING MSHR THRESHOLD FROM 16 TO 15
CHANGING MSHR THRESHOLD FROM 15 TO 13
CHANGING MSHR THRESHOLD FROM 13 TO 11
CHANGING MSHR THRESHOLD FROM 11 TO 10
CHANGING MSHR THRESHOLD FROM 10 TO 8
CHANGING MSHR THRESHOLD FROM 8 TO 6
CHANGING MSHR THRESHOLD FROM 6 TO 5
CHANGING MSHR THRESHOLD FROM 5 TO 3
CHANGING MSHR THRESHOLD FROM 3 TO 2
CHANGING MSHR THRESHOLD FROM 2 TO 3
CHANGING MSHR THRESHOLD FROM 3 TO 5
CHANGING MSHR THRESHOLD FROM 5 TO 6
CHANGING MSHR THRESHOLD FROM 6 TO 8
CHANGING MSHR THRESHOLD FROM 8 TO 10
CHANGING MSHR THRESHOLD FROM 10 TO 11
CHANGING MSHR THRESHOLD FROM 11 TO 13
CHANGING MSHR THRESHOLD FROM 13 TO 15
OFFSET CHANGED FROM 2 TO 1
CHANGING MSHR THRESHOLD FROM 15 TO MAX 28
Heartbeat CPU 0 instructions: 30000000 cycles: 11184795 heartbeat IPC: 2.71647 cumulative IPC: 2.68221 (Simulation time: 0 hr 1 min 24 sec) 
OFFSET CHANGED FROM 1 TO 1
CHANGING MSHR THRESHOLD FROM 28 TO 10
OFFSET CHANGED FROM 1 TO 2
CHANGING MSHR THRESHOLD FROM 10 TO 8
CHANGING MSHR THRESHOLD FROM 8 TO 6
CHANGING MSHR THRESHOLD FROM 6 TO 5
CHANGING MSHR THRESHOLD FROM 5 TO 3
CHANGING MSHR THRESHOLD FROM 3 TO 2
OFFSET CHANGED FROM 2 TO 1
CHANGING MSHR THRESHOLD FROM 2 TO 3
CHANGING MSHR THRESHOLD FROM 3 TO 5
CHANGING MSHR THRESHOLD FROM 5 TO 6
CHANGING MSHR THRESHOLD FROM 6 TO 8
CHANGING MSHR THRESHOLD FROM 8 TO 10
CHANGING MSHR THRESHOLD FROM 10 TO 11
CHANGING MSHR THRESHOLD FROM 11 TO 13
CHANGING MSHR THRESHOLD FROM 13 TO 15
CHANGING MSHR THRESHOLD FROM 15 TO 16
CHANGING MSHR THRESHOLD FROM 16 TO 18
CHANGING MSHR THRESHOLD FROM 18 TO 16
CHANGING MSHR THRESHOLD FROM 16 TO 15
CHANGING MSHR THRESHOLD FROM 15 TO 13
CHANGING MSHR THRESHOLD FROM 13 TO 11
CHANGING MSHR THRESHOLD FROM 11 TO 10
CHANGING MSHR THRESHOLD FROM 10 TO 8
CHANGING MSHR THRESHOLD FROM 8 TO 6
CHANGING MSHR THRESHOLD FROM 6 TO 5
CHANGING MSHR THRESHOLD FROM 5 TO 3
CHANGING MSHR THRESHOLD FROM 3 TO 2
CHANGING MSHR THRESHOLD FROM 2 TO 3
CHANGING MSHR THRESHOLD FROM 3 TO 5
CHANGING MSHR THRESHOLD FROM 5 TO 6
CHANGING MSHR THRESHOLD FROM 6 TO 8
CHANGING MSHR THRESHOLD FROM 8 TO 10
CHANGING MSHR THRESHOLD FROM 10 TO 11
OFFSET CHANGED FROM 1 TO 1
CHANGING MSHR THRESHOLD FROM 11 TO 10
CHANGING MSHR THRESHOLD FROM 10 TO 8
CHANGING MSHR THRESHOLD FROM 8 TO 6
CHANGING MSHR THRESHOLD FROM 6 TO 5
CHANGING MSHR THRESHOLD FROM 5 TO 3
CHANGING MSHR THRESHOLD FROM 3 TO 2
CHANGING MSHR THRESHOLD FROM 2 TO 3
CHANGING MSHR THRESHOLD FROM 3 TO 5
CHANGING MSHR THRESHOLD FROM 5 TO 6
OFFSET CHANGED FROM 1 TO 4
CHANGING MSHR THRESHOLD FROM 6 TO 8
CHANGING MSHR THRESHOLD FROM 8 TO 10
CHANGING MSHR THRESHOLD FROM 10 TO 11
CHANGING MSHR THRESHOLD FROM 11 TO 13
CHANGING MSHR THRESHOLD FROM 13 TO 15
CHANGING MSHR THRESHOLD FROM 15 TO 13
CHANGING MSHR THRESHOLD FROM 13 TO 11
CHANGING MSHR THRESHOLD FROM 11 TO 10
CHANGING MSHR THRESHOLD FROM 10 TO 8
CHANGING MSHR THRESHOLD FROM 8 TO 6
CHANGING MSHR THRESHOLD FROM 6 TO 5
CHANGING MSHR THRESHOLD FROM 5 TO 3
CHANGING MSHR THRESHOLD FROM 3 TO 2
CHANGING MSHR THRESHOLD FROM 2 TO 3
CHANGING MSHR THRESHOLD FROM 3 TO 5
CHANGING MSHR THRESHOLD FROM 5 TO 6
CHANGING MSHR THRESHOLD FROM 6 TO 8
CHANGING MSHR THRESHOLD FROM 8 TO 10
CHANGING MSHR THRESHOLD FROM 10 TO 11
CHANGING MSHR THRESHOLD FROM 11 TO 13
OFFSET CHANGED FROM 4 TO 5
CHANGING MSHR THRESHOLD FROM 13 TO 15
CHANGING MSHR THRESHOLD FROM 15 TO 16
CHANGING MSHR THRESHOLD FROM 16 TO 18
CHANGING MSHR THRESHOLD FROM 18 TO 19
CHANGING MSHR THRESHOLD FROM 19 TO 21
CHANGING MSHR THRESHOLD FROM 21 TO 23
CHANGING MSHR THRESHOLD FROM 23 TO 24
CHANGING MSHR THRESHOLD FROM 24 TO 26
CHANGING MSHR THRESHOLD FROM 26 TO 28
CHANGING MSHR THRESHOLD FROM 28 TO 26
CHANGING MSHR THRESHOLD FROM 26 TO 24
CHANGING MSHR THRESHOLD FROM 24 TO 23
CHANGING MSHR THRESHOLD FROM 23 TO 21
CHANGING MSHR THRESHOLD FROM 21 TO 19
CHANGING MSHR THRESHOLD FROM 19 TO 18
CHANGING MSHR THRESHOLD FROM 18 TO 16
CHANGING MSHR THRESHOLD FROM 16 TO 15
CHANGING MSHR THRESHOLD FROM 15 TO 13
CHANGING MSHR THRESHOLD FROM 13 TO 11
CHANGING MSHR THRESHOLD FROM 11 TO 10
CHANGING MSHR THRESHOLD FROM 10 TO 8
CHANGING MSHR THRESHOLD FROM 8 TO 6
CHANGING MSHR THRESHOLD FROM 6 TO 5
CHANGING MSHR THRESHOLD FROM 5 TO 3
CHANGING MSHR THRESHOLD FROM 3 TO 2
CHANGING MSHR THRESHOLD FROM 2 TO 3
CHANGING MSHR THRESHOLD FROM 3 TO 5
CHANGING MSHR THRESHOLD FROM 5 TO 6
CHANGING MSHR THRESHOLD FROM 6 TO 8
CHANGING MSHR THRESHOLD FROM 8 TO 10
CHANGING MSHR THRESHOLD FROM 10 TO 11
CHANGING MSHR THRESHOLD FROM 11 TO 13
CHANGING MSHR THRESHOLD FROM 13 TO 15
CHANGING MSHR THRESHOLD FROM 15 TO 16
CHANGING MSHR THRESHOLD FROM 16 TO 18
CHANGING MSHR THRESHOLD FROM 18 TO 19
CHANGING MSHR THRESHOLD FROM 19 TO 21
CHANGING MSHR THRESHOLD FROM 21 TO 23
CHANGING MSHR THRESHOLD FROM 23 TO 24
CHANGING MSHR THRESHOLD FROM 24 TO 23
CHANGING MSHR THRESHOLD FROM 23 TO 21
CHANGING MSHR THRESHOLD FROM 21 TO 19
CHANGING MSHR THRESHOLD FROM 19 TO 18
CHANGING MSHR THRESHOLD FROM 18 TO 16
CHANGING MSHR THRESHOLD FROM 16 TO 15
CHANGING MSHR THRESHOLD FROM 15 TO 13
CHANGING MSHR THRESHOLD FROM 13 TO 11
CHANGING MSHR THRESHOLD FROM 11 TO 10
CHANGING MSHR THRESHOLD FROM 10 TO 8
CHANGING MSHR THRESHOLD FROM 8 TO 6
CHANGING MSHR THRESHOLD FROM 6 TO 5
CHANGING MSHR THRESHOLD FROM 5 TO 3
CHANGING MSHR THRESHOLD FROM 3 TO 2
CHANGING MSHR THRESHOLD FROM 2 TO 3
CHANGING MSHR THRESHOLD FROM 3 TO 5
CHANGING MSHR THRESHOLD FROM 5 TO 6
CHANGING MSHR THRESHOLD FROM 6 TO 8
CHANGING MSHR THRESHOLD FROM 8 TO 10
CHANGING MSHR THRESHOLD FROM 10 TO 11
CHANGING MSHR THRESHOLD FROM 11 TO 13
CHANGING MSHR THRESHOLD FROM 13 TO 15
CHANGING MSHR THRESHOLD FROM 15 TO 16
CHANGING MSHR THRESHOLD FROM 16 TO 18
CHANGING MSHR THRESHOLD FROM 18 TO 19
CHANGING MSHR THRESHOLD FROM 19 TO 21
CHANGING MSHR THRESHOLD FROM 21 TO 23
OFFSET CHANGED FROM 5 TO 4
CHANGING MSHR THRESHOLD FROM 23 TO 21
CHANGING MSHR THRESHOLD FROM 21 TO 19
CHANGING MSHR THRESHOLD FROM 19 TO 18
CHANGING MSHR THRESHOLD FROM 18 TO 16
CHANGING MSHR THRESHOLD FROM 16 TO 15
CHANGING MSHR THRESHOLD FROM 15 TO 13
CHANGING MSHR THRESHOLD FROM 13 TO 11
CHANGING MSHR THRESHOLD FROM 11 TO 10
CHANGING MSHR THRESHOLD FROM 10 TO 8
CHANGING MSHR THRESHOLD FROM 8 TO 6
CHANGING MSHR THRESHOLD FROM 6 TO 5
CHANGING MSHR THRESHOLD FROM 5 TO 3
CHANGING MSHR THRESHOLD FROM 3 TO 2
CHANGING MSHR THRESHOLD FROM 2 TO 3
CHANGING MSHR THRESHOLD FROM 3 TO 5
CHANGING MSHR THRESHOLD FROM 5 TO 6
CHANGING MSHR THRESHOLD FROM 6 TO 8
CHANGING MSHR THRESHOLD FROM 8 TO 10
CHANGING MSHR THRESHOLD FROM 10 TO 11
CHANGING MSHR THRESHOLD FROM 11 TO 13
CHANGING MSHR THRESHOLD FROM 13 TO 15
CHANGING MSHR THRESHOLD FROM 15 TO 16
CHANGING MSHR THRESHOLD FROM 16 TO 18
CHANGING MSHR THRESHOLD FROM 18 TO 19
CHANGING MSHR THRESHOLD FROM 19 TO 21
CHANGING MSHR THRESHOLD FROM 21 TO 19
CHANGING MSHR THRESHOLD FROM 19 TO 18
CHANGING MSHR THRESHOLD FROM 18 TO 16
CHANGING MSHR THRESHOLD FROM 16 TO 15
CHANGING MSHR THRESHOLD FROM 15 TO 13
CHANGING MSHR THRESHOLD FROM 13 TO 11
CHANGING MSHR THRESHOLD FROM 11 TO 10
CHANGING MSHR THRESHOLD FROM 10 TO 8
CHANGING MSHR THRESHOLD FROM 8 TO 6
CHANGING MSHR THRESHOLD FROM 6 TO 5
CHANGING MSHR THRESHOLD FROM 5 TO 3
CHANGING MSHR THRESHOLD FROM 3 TO 2
CHANGING MSHR THRESHOLD FROM 2 TO 3
CHANGING MSHR THRESHOLD FROM 3 TO 5
CHANGING MSHR THRESHOLD FROM 5 TO 6
CHANGING MSHR THRESHOLD FROM 6 TO 8
CHANGING MSHR THRESHOLD FROM 8 TO 10
CHANGING MSHR THRESHOLD FROM 10 TO 11
CHANGING MSHR THRESHOLD FROM 11 TO 13
CHANGING MSHR THRESHOLD FROM 13 TO 15
OFFSET CHANGED FROM 4 TO 6
CHANGING MSHR THRESHOLD FROM 15 TO 16
CHANGING MSHR THRESHOLD FROM 16 TO 18
CHANGING MSHR THRESHOLD FROM 18 TO 19
CHANGING MSHR THRESHOLD FROM 19 TO 21
CHANGING MSHR THRESHOLD FROM 21 TO 23
CHANGING MSHR THRESHOLD FROM 23 TO 24
CHANGING MSHR THRESHOLD FROM 24 TO 26
CHANGING MSHR THRESHOLD FROM 26 TO 28
OFFSET CHANGED FROM 6 TO 9
OFFSET CHANGED FROM 9 TO -9
OFFSET CHANGED FROM -9 TO 8
OFFSET CHANGED FROM 8 TO 9
CHANGING MSHR THRESHOLD FROM 28 TO 26
CHANGING MSHR THRESHOLD FROM 26 TO 24
CHANGING MSHR THRESHOLD FROM 24 TO 23
CHANGING MSHR THRESHOLD FROM 23 TO 21
CHANGING MSHR THRESHOLD FROM 21 TO 19
CHANGING MSHR THRESHOLD FROM 19 TO 18
CHANGING MSHR THRESHOLD FROM 18 TO 16
CHANGING MSHR THRESHOLD FROM 16 TO 15
CHANGING MSHR THRESHOLD FROM 15 TO 13
CHANGING MSHR THRESHOLD FROM 13 TO 11
CHANGING MSHR THRESHOLD FROM 11 TO 10
CHANGING MSHR THRESHOLD FROM 10 TO 8
CHANGING MSHR THRESHOLD FROM 8 TO 6
CHANGING MSHR THRESHOLD FROM 6 TO 5
CHANGING MSHR THRESHOLD FROM 5 TO 3
CHANGING MSHR THRESHOLD FROM 3 TO 2
CHANGING MSHR THRESHOLD FROM 2 TO 3
CHANGING MSHR THRESHOLD FROM 3 TO 5
CHANGING MSHR THRESHOLD FROM 5 TO 6
CHANGING MSHR THRESHOLD FROM 6 TO 8
CHANGING MSHR THRESHOLD FROM 8 TO 10
CHANGING MSHR THRESHOLD FROM 10 TO 11
CHANGING MSHR THRESHOLD FROM 11 TO 13
CHANGING MSHR THRESHOLD FROM 13 TO 15
CHANGING MSHR THRESHOLD FROM 15 TO 16
CHANGING MSHR THRESHOLD FROM 16 TO 18
CHANGING MSHR THRESHOLD FROM 18 TO 19
CHANGING MSHR THRESHOLD FROM 19 TO 21
CHANGING MSHR THRESHOLD FROM 21 TO 23
CHANGING MSHR THRESHOLD FROM 23 TO 24
CHANGING MSHR THRESHOLD FROM 24 TO 23
CHANGING MSHR THRESHOLD FROM 23 TO 21
CHANGING MSHR THRESHOLD FROM 21 TO 19
CHANGING MSHR THRESHOLD FROM 19 TO 18
CHANGING MSHR THRESHOLD FROM 18 TO 16
CHANGING MSHR THRESHOLD FROM 16 TO 15
CHANGING MSHR THRESHOLD FROM 15 TO 13
CHANGING MSHR THRESHOLD FROM 13 TO 11
CHANGING MSHR THRESHOLD FROM 11 TO 10
CHANGING MSHR THRESHOLD FROM 10 TO 8
CHANGING MSHR THRESHOLD FROM 8 TO 6
CHANGING MSHR THRESHOLD FROM 6 TO 5
CHANGING MSHR THRESHOLD FROM 5 TO 3
CHANGING MSHR THRESHOLD FROM 3 TO 2
CHANGING MSHR THRESHOLD FROM 2 TO 3
CHANGING MSHR THRESHOLD FROM 3 TO 5
CHANGING MSHR THRESHOLD FROM 5 TO 6
CHANGING MSHR THRESHOLD FROM 6 TO 8
CHANGING MSHR THRESHOLD FROM 8 TO 10
CHANGING MSHR THRESHOLD FROM 10 TO 11
CHANGING MSHR THRESHOLD FROM 11 TO 13
CHANGING MSHR THRESHOLD FROM 13 TO 15
CHANGING MSHR THRESHOLD FROM 15 TO 16
CHANGING MSHR THRESHOLD FROM 16 TO 18
OFFSET CHANGED FROM 9 TO 8
CHANGING MSHR THRESHOLD FROM 18 TO 19
CHANGING MSHR THRESHOLD FROM 19 TO 21
CHANGING MSHR THRESHOLD FROM 21 TO 23
CHANGING MSHR THRESHOLD FROM 23 TO 24
CHANGING MSHR THRESHOLD FROM 24 TO 23
CHANGING MSHR THRESHOLD FROM 23 TO 21
CHANGING MSHR THRESHOLD FROM 21 TO 19
CHANGING MSHR THRESHOLD FROM 19 TO 18
CHANGING MSHR THRESHOLD FROM 18 TO 16
CHANGING MSHR THRESHOLD FROM 16 TO 15
CHANGING MSHR THRESHOLD FROM 15 TO 13
CHANGING MSHR THRESHOLD FROM 13 TO 11
CHANGING MSHR THRESHOLD FROM 11 TO 10
CHANGING MSHR THRESHOLD FROM 10 TO 8
CHANGING MSHR THRESHOLD FROM 8 TO 6
CHANGING MSHR THRESHOLD FROM 6 TO 5
CHANGING MSHR THRESHOLD FROM 5 TO 3
CHANGING MSHR THRESHOLD FROM 3 TO 2
CHANGING MSHR THRESHOLD FROM 2 TO 3
CHANGING MSHR THRESHOLD FROM 3 TO 5
CHANGING MSHR THRESHOLD FROM 5 TO 6
CHANGING MSHR THRESHOLD FROM 6 TO 8
CHANGING MSHR THRESHOLD FROM 8 TO 10
CHANGING MSHR THRESHOLD FROM 10 TO 11
CHANGING MSHR THRESHOLD FROM 11 TO 13
CHANGING MSHR THRESHOLD FROM 13 TO 15
CHANGING MSHR THRESHOLD FROM 15 TO 16
CHANGING MSHR THRESHOLD FROM 16 TO 18
CHANGING MSHR THRESHOLD FROM 18 TO 19
CHANGING MSHR THRESHOLD FROM 19 TO 18
CHANGING MSHR THRESHOLD FROM 18 TO 16
CHANGING MSHR THRESHOLD FROM 16 TO 15
CHANGING MSHR THRESHOLD FROM 15 TO 13
CHANGING MSHR THRESHOLD FROM 13 TO 11
CHANGING MSHR THRESHOLD FROM 11 TO 10
CHANGING MSHR THRESHOLD FROM 10 TO 8
CHANGING MSHR THRESHOLD FROM 8 TO 6
CHANGING MSHR THRESHOLD FROM 6 TO 5
CHANGING MSHR THRESHOLD FROM 5 TO 3
CHANGING MSHR THRESHOLD FROM 3 TO 2
CHANGING MSHR THRESHOLD FROM 2 TO 3
CHANGING MSHR THRESHOLD FROM 3 TO 5
CHANGING MSHR THRESHOLD FROM 5 TO 6
CHANGING MSHR THRESHOLD FROM 6 TO 8
CHANGING MSHR THRESHOLD FROM 8 TO 10
CHANGING MSHR THRESHOLD FROM 10 TO 11
CHANGING MSHR THRESHOLD FROM 11 TO 13
CHANGING MSHR THRESHOLD FROM 13 TO 15
CHANGING MSHR THRESHOLD FROM 15 TO 16
OFFSET CHANGED FROM 8 TO 3
CHANGING MSHR THRESHOLD FROM 16 TO 15
CHANGING MSHR THRESHOLD FROM 15 TO 13
CHANGING MSHR THRESHOLD FROM 13 TO 11
CHANGING MSHR THRESHOLD FROM 11 TO 10
CHANGING MSHR THRESHOLD FROM 10 TO 8
CHANGING MSHR THRESHOLD FROM 8 TO 6
CHANGING MSHR THRESHOLD FROM 6 TO 5
CHANGING MSHR THRESHOLD FROM 5 TO 3
CHANGING MSHR THRESHOLD FROM 3 TO 2
CHANGING MSHR THRESHOLD FROM 2 TO 3
CHANGING MSHR THRESHOLD FROM 3 TO 5
CHANGING MSHR THRESHOLD FROM 5 TO 6
CHANGING MSHR THRESHOLD FROM 6 TO 8
CHANGING MSHR THRESHOLD FROM 8 TO 10
CHANGING MSHR THRESHOLD FROM 10 TO 11
OFFSET CHANGED FROM 3 TO 1
CHANGING MSHR THRESHOLD FROM 11 TO 10
CHANGING MSHR THRESHOLD FROM 10 TO 8
CHANGING MSHR THRESHOLD FROM 8 TO 6
OFFSET CHANGED FROM 1 TO 1
CHANGING MSHR THRESHOLD FROM 6 TO 8
CHANGING MSHR THRESHOLD FROM 8 TO 10
CHANGING MSHR THRESHOLD FROM 10 TO 11
CHANGING MSHR THRESHOLD FROM 11 TO 13
CHANGING MSHR THRESHOLD FROM 13 TO 15
CHANGING MSHR THRESHOLD FROM 15 TO 16
CHANGING MSHR THRESHOLD FROM 16 TO 15
CHANGING MSHR THRESHOLD FROM 15 TO 13
CHANGING MSHR THRESHOLD FROM 13 TO 11
CHANGING MSHR THRESHOLD FROM 11 TO 10
CHANGING MSHR THRESHOLD FROM 10 TO 8
CHANGING MSHR THRESHOLD FROM 8 TO 6
CHANGING MSHR THRESHOLD FROM 6 TO 5
CHANGING MSHR THRESHOLD FROM 5 TO 3
OFFSET CHANGED FROM 1 TO 1
CHANGING MSHR THRESHOLD FROM 3 TO 2
CHANGING MSHR THRESHOLD FROM 2 TO 3
CHANGING MSHR THRESHOLD FROM 3 TO 5
CHANGING MSHR THRESHOLD FROM 5 TO 6
CHANGING MSHR THRESHOLD FROM 6 TO 8
CHANGING MSHR THRESHOLD FROM 8 TO 10
CHANGING MSHR THRESHOLD FROM 10 TO 11
CHANGING MSHR THRESHOLD FROM 11 TO 13
CHANGING MSHR THRESHOLD FROM 13 TO 15
CHANGING MSHR THRESHOLD FROM 15 TO 16
CHANGING MSHR THRESHOLD FROM 16 TO 18
CHANGING MSHR THRESHOLD FROM 18 TO 19
CHANGING MSHR THRESHOLD FROM 19 TO 21
CHANGING MSHR THRESHOLD FROM 21 TO 19
CHANGING MSHR THRESHOLD FROM 19 TO 18
CHANGING MSHR THRESHOLD FROM 18 TO 16
CHANGING MSHR THRESHOLD FROM 16 TO 15
CHANGING MSHR THRESHOLD FROM 15 TO 13
CHANGING MSHR THRESHOLD FROM 13 TO 11
CHANGING MSHR THRESHOLD FROM 11 TO 10
CHANGING MSHR THRESHOLD FROM 10 TO 8
CHANGING MSHR THRESHOLD FROM 8 TO 6
CHANGING MSHR THRESHOLD FROM 6 TO 5
CHANGING MSHR THRESHOLD FROM 5 TO 3
CHANGING MSHR THRESHOLD FROM 3 TO 2
CHANGING MSHR THRESHOLD FROM 2 TO 3
CHANGING MSHR THRESHOLD FROM 3 TO 5
CHANGING MSHR THRESHOLD FROM 5 TO 6
CHANGING MSHR THRESHOLD FROM 6 TO 8
CHANGING MSHR THRESHOLD FROM 8 TO 10
CHANGING MSHR THRESHOLD FROM 10 TO 11
OFFSET CHANGED FROM 1 TO 1
CHANGING MSHR THRESHOLD FROM 11 TO 10
CHANGING MSHR THRESHOLD FROM 10 TO 8
CHANGING MSHR THRESHOLD FROM 8 TO 6
CHANGING MSHR THRESHOLD FROM 6 TO 5
CHANGING MSHR THRESHOLD FROM 5 TO 3
CHANGING MSHR THRESHOLD FROM 3 TO 2
CHANGING MSHR THRESHOLD FROM 2 TO 3
CHANGING MSHR THRESHOLD FROM 3 TO 5
CHANGING MSHR THRESHOLD FROM 5 TO 6
CHANGING MSHR THRESHOLD FROM 6 TO 8
CHANGING MSHR THRESHOLD FROM 8 TO 10
CHANGING MSHR THRESHOLD FROM 10 TO 11
CHANGING MSHR THRESHOLD FROM 11 TO 13
CHANGING MSHR THRESHOLD FROM 13 TO 11
CHANGING MSHR THRESHOLD FROM 11 TO 10
CHANGING MSHR THRESHOLD FROM 10 TO 8
CHANGING MSHR THRESHOLD FROM 8 TO 6
CHANGING MSHR THRESHOLD FROM 6 TO 5
CHANGING MSHR THRESHOLD FROM 5 TO 3
CHANGING MSHR THRESHOLD FROM 3 TO 2
OFFSET CHANGED FROM 1 TO 7
CHANGING MSHR THRESHOLD FROM 2 TO 3
CHANGING MSHR THRESHOLD FROM 3 TO 5
CHANGING MSHR THRESHOLD FROM 5 TO 6
CHANGING MSHR THRESHOLD FROM 6 TO 8
CHANGING MSHR THRESHOLD FROM 8 TO 10
CHANGING MSHR THRESHOLD FROM 10 TO 11
CHANGING MSHR THRESHOLD FROM 11 TO 13
CHANGING MSHR THRESHOLD FROM 13 TO 15
CHANGING MSHR THRESHOLD FROM 15 TO 13
CHANGING MSHR THRESHOLD FROM 13 TO 11
CHANGING MSHR THRESHOLD FROM 11 TO 10
CHANGING MSHR THRESHOLD FROM 10 TO 8
CHANGING MSHR THRESHOLD FROM 8 TO 6
CHANGING MSHR THRESHOLD FROM 6 TO 5
CHANGING MSHR THRESHOLD FROM 5 TO 3
OFFSET CHANGED FROM 7 TO 1
CHANGING MSHR THRESHOLD FROM 3 TO 5
CHANGING MSHR THRESHOLD FROM 5 TO 6
CHANGING MSHR THRESHOLD FROM 6 TO 8
CHANGING MSHR THRESHOLD FROM 8 TO 10
CHANGING MSHR THRESHOLD FROM 10 TO 11
CHANGING MSHR THRESHOLD FROM 11 TO 13
CHANGING MSHR THRESHOLD FROM 13 TO 15
CHANGING MSHR THRESHOLD FROM 15 TO 16
CHANGING MSHR THRESHOLD FROM 16 TO 18
CHANGING MSHR THRESHOLD FROM 18 TO 16
CHANGING MSHR THRESHOLD FROM 16 TO 15
CHANGING MSHR THRESHOLD FROM 15 TO 13
CHANGING MSHR THRESHOLD FROM 13 TO 11
CHANGING MSHR THRESHOLD FROM 11 TO 10
CHANGING MSHR THRESHOLD FROM 10 TO 8
CHANGING MSHR THRESHOLD FROM 8 TO 6
CHANGING MSHR THRESHOLD FROM 6 TO 5
CHANGING MSHR THRESHOLD FROM 5 TO 3
CHANGING MSHR THRESHOLD FROM 3 TO 2
CHANGING MSHR THRESHOLD FROM 2 TO 3
CHANGING MSHR THRESHOLD FROM 3 TO 5
CHANGING MSHR THRESHOLD FROM 5 TO 6
CHANGING MSHR THRESHOLD FROM 6 TO 8
CHANGING MSHR THRESHOLD FROM 8 TO 10
CHANGING MSHR THRESHOLD FROM 10 TO 11
CHANGING MSHR THRESHOLD FROM 11 TO 13
CHANGING MSHR THRESHOLD FROM 13 TO 15
CHANGING MSHR THRESHOLD FROM 15 TO 16
CHANGING MSHR THRESHOLD FROM 16 TO 18
CHANGING MSHR THRESHOLD FROM 18 TO 19
CHANGING MSHR THRESHOLD FROM 19 TO 21
CHANGING MSHR THRESHOLD FROM 21 TO 23
CHANGING MSHR THRESHOLD FROM 23 TO 24
CHANGING MSHR THRESHOLD FROM 24 TO 26
CHANGING MSHR THRESHOLD FROM 26 TO 28
OFFSET CHANGED FROM 1 TO 1
OFFSET CHANGED FROM 1 TO 4
CHANGING MSHR THRESHOLD FROM 28 TO 6
OFFSET CHANGED FROM 4 TO 4
OFFSET CHANGED FROM 4 TO 4
CHANGING MSHR THRESHOLD FROM 6 TO 8
CHANGING MSHR THRESHOLD FROM 8 TO 10
CHANGING MSHR THRESHOLD FROM 10 TO 11
CHANGING MSHR THRESHOLD FROM 11 TO 13
CHANGING MSHR THRESHOLD FROM 13 TO 15
CHANGING MSHR THRESHOLD FROM 15 TO 16
CHANGING MSHR THRESHOLD FROM 16 TO 18
CHANGING MSHR THRESHOLD FROM 18 TO 19
CHANGING MSHR THRESHOLD FROM 19 TO 21
CHANGING MSHR THRESHOLD FROM 21 TO 23
CHANGING MSHR THRESHOLD FROM 23 TO 24
CHANGING MSHR THRESHOLD FROM 24 TO 26
CHANGING MSHR THRESHOLD FROM 26 TO 28
CHANGING MSHR THRESHOLD FROM 28 TO 26
CHANGING MSHR THRESHOLD FROM 26 TO 24
CHANGING MSHR THRESHOLD FROM 24 TO 23
CHANGING MSHR THRESHOLD FROM 23 TO 21
CHANGING MSHR THRESHOLD FROM 21 TO 19
CHANGING MSHR THRESHOLD FROM 19 TO 18
CHANGING MSHR THRESHOLD FROM 18 TO 16
CHANGING MSHR THRESHOLD FROM 16 TO 15
OFFSET CHANGED FROM 4 TO 6
CHANGING MSHR THRESHOLD FROM 15 TO 16
CHANGING MSHR THRESHOLD FROM 16 TO 18
CHANGING MSHR THRESHOLD FROM 18 TO 19
CHANGING MSHR THRESHOLD FROM 19 TO 21
CHANGING MSHR THRESHOLD FROM 21 TO 23
CHANGING MSHR THRESHOLD FROM 23 TO 24
CHANGING MSHR THRESHOLD FROM 24 TO 26
CHANGING MSHR THRESHOLD FROM 26 TO 28
CHANGING MSHR THRESHOLD FROM 28 TO 26
CHANGING MSHR THRESHOLD FROM 26 TO 24
CHANGING MSHR THRESHOLD FROM 24 TO 23
CHANGING MSHR THRESHOLD FROM 23 TO 21
CHANGING MSHR THRESHOLD FROM 21 TO 19
CHANGING MSHR THRESHOLD FROM 19 TO 18
CHANGING MSHR THRESHOLD FROM 18 TO 16
CHANGING MSHR THRESHOLD FROM 16 TO 15
CHANGING MSHR THRESHOLD FROM 15 TO 13
CHANGING MSHR THRESHOLD FROM 13 TO 11
CHANGING MSHR THRESHOLD FROM 11 TO 10
CHANGING MSHR THRESHOLD FROM 10 TO 8
CHANGING MSHR THRESHOLD FROM 8 TO 6
CHANGING MSHR THRESHOLD FROM 6 TO 5
CHANGING MSHR THRESHOLD FROM 5 TO 3
CHANGING MSHR THRESHOLD FROM 3 TO 2
NO PREFETCH REQUEST BECAUSE PREFETCH SCORE 13 IS NOT GREATER THAN 20 (MSHR OCC = 2)
NO PREFETCH REQUEST BECAUSE PREFETCH SCORE 13 IS NOT GREATER THAN 20 (MSHR OCC = 2)
NO PREFETCH REQUEST BECAUSE PREFETCH SCORE 13 IS NOT GREATER THAN 20 (MSHR OCC = 2)
NO PREFETCH REQUEST BECAUSE PREFETCH SCORE 13 IS NOT GREATER THAN 20 (MSHR OCC = 2)
CHANGING MSHR THRESHOLD FROM 2 TO 3
CHANGING MSHR THRESHOLD FROM 3 TO 5
CHANGING MSHR THRESHOLD FROM 5 TO 6
CHANGING MSHR THRESHOLD FROM 6 TO 8
CHANGING MSHR THRESHOLD FROM 8 TO 10
CHANGING MSHR THRESHOLD FROM 10 TO 11
CHANGING MSHR THRESHOLD FROM 11 TO 13
CHANGING MSHR THRESHOLD FROM 13 TO 15
CHANGING MSHR THRESHOLD FROM 15 TO 16
CHANGING MSHR THRESHOLD FROM 16 TO 18
CHANGING MSHR THRESHOLD FROM 18 TO 19
CHANGING MSHR THRESHOLD FROM 19 TO 21
CHANGING MSHR THRESHOLD FROM 21 TO 23
CHANGING MSHR THRESHOLD FROM 23 TO 24
CHANGING MSHR THRESHOLD FROM 24 TO 26
CHANGING MSHR THRESHOLD FROM 26 TO 28
OFFSET CHANGED FROM 6 TO 8
CHANGING MSHR THRESHOLD FROM 28 TO 26
CHANGING MSHR THRESHOLD FROM 26 TO 24
CHANGING MSHR THRESHOLD FROM 24 TO 23
CHANGING MSHR THRESHOLD FROM 23 TO 21
CHANGING MSHR THRESHOLD FROM 21 TO 19
CHANGING MSHR THRESHOLD FROM 19 TO 18
CHANGING MSHR THRESHOLD FROM 18 TO 16
CHANGING MSHR THRESHOLD FROM 16 TO 15
CHANGING MSHR THRESHOLD FROM 15 TO 13
CHANGING MSHR THRESHOLD FROM 13 TO 11
CHANGING MSHR THRESHOLD FROM 11 TO 10
CHANGING MSHR THRESHOLD FROM 10 TO 8
CHANGING MSHR THRESHOLD FROM 8 TO 6
CHANGING MSHR THRESHOLD FROM 6 TO 5
CHANGING MSHR THRESHOLD FROM 5 TO 3
CHANGING MSHR THRESHOLD FROM 3 TO 2
NO PREFETCH REQUEST BECAUSE PREFETCH SCORE 12 IS NOT GREATER THAN 20 (MSHR OCC = 2)
NO PREFETCH REQUEST BECAUSE PREFETCH SCORE 12 IS NOT GREATER THAN 20 (MSHR OCC = 2)
NO PREFETCH REQUEST BECAUSE PREFETCH SCORE 12 IS NOT GREATER THAN 20 (MSHR OCC = 2)
CHANGING MSHR THRESHOLD FROM 2 TO 3
CHANGING MSHR THRESHOLD FROM 3 TO 5
CHANGING MSHR THRESHOLD FROM 5 TO 6
CHANGING MSHR THRESHOLD FROM 6 TO 8
CHANGING MSHR THRESHOLD FROM 8 TO 10
CHANGING MSHR THRESHOLD FROM 10 TO 11
CHANGING MSHR THRESHOLD FROM 11 TO 13
CHANGING MSHR THRESHOLD FROM 13 TO 15
CHANGING MSHR THRESHOLD FROM 15 TO 16
CHANGING MSHR THRESHOLD FROM 16 TO 18
CHANGING MSHR THRESHOLD FROM 18 TO 19
CHANGING MSHR THRESHOLD FROM 19 TO 21
CHANGING MSHR THRESHOLD FROM 21 TO 23
CHANGING MSHR THRESHOLD FROM 23 TO 24
CHANGING MSHR THRESHOLD FROM 24 TO 26
CHANGING MSHR THRESHOLD FROM 26 TO 28
CHANGING MSHR THRESHOLD FROM 28 TO 26
CHANGING MSHR THRESHOLD FROM 26 TO 24
CHANGING MSHR THRESHOLD FROM 24 TO 23
CHANGING MSHR THRESHOLD FROM 23 TO 21
CHANGING MSHR THRESHOLD FROM 21 TO 19
CHANGING MSHR THRESHOLD FROM 19 TO 18
CHANGING MSHR THRESHOLD FROM 18 TO 16
CHANGING MSHR THRESHOLD FROM 16 TO 15
CHANGING MSHR THRESHOLD FROM 15 TO 13
CHANGING MSHR THRESHOLD FROM 13 TO 11
CHANGING MSHR THRESHOLD FROM 11 TO 10
CHANGING MSHR THRESHOLD FROM 10 TO 8
CHANGING MSHR THRESHOLD FROM 8 TO 10
CHANGING MSHR THRESHOLD FROM 10 TO 11
CHANGING MSHR THRESHOLD FROM 11 TO 13
CHANGING MSHR THRESHOLD FROM 13 TO 15
CHANGING MSHR THRESHOLD FROM 15 TO 16
CHANGING MSHR THRESHOLD FROM 16 TO 18
CHANGING MSHR THRESHOLD FROM 18 TO 19
CHANGING MSHR THRESHOLD FROM 19 TO 21
CHANGING MSHR THRESHOLD FROM 21 TO 23
CHANGING MSHR THRESHOLD FROM 23 TO 24
CHANGING MSHR THRESHOLD FROM 24 TO 26
CHANGING MSHR THRESHOLD FROM 26 TO 28
CHANGING MSHR THRESHOLD FROM 28 TO 26
CHANGING MSHR THRESHOLD FROM 26 TO 24
CHANGING MSHR THRESHOLD FROM 24 TO 23
CHANGING MSHR THRESHOLD FROM 23 TO 21
CHANGING MSHR THRESHOLD FROM 21 TO 19
CHANGING MSHR THRESHOLD FROM 19 TO 18
CHANGING MSHR THRESHOLD FROM 18 TO 16
CHANGING MSHR THRESHOLD FROM 16 TO 15
CHANGING MSHR THRESHOLD FROM 15 TO 13
CHANGING MSHR THRESHOLD FROM 13 TO 11
CHANGING MSHR THRESHOLD FROM 11 TO 10
CHANGING MSHR THRESHOLD FROM 10 TO 8
CHANGING MSHR THRESHOLD FROM 8 TO 6
CHANGING MSHR THRESHOLD FROM 6 TO 5
CHANGING MSHR THRESHOLD FROM 5 TO 3
CHANGING MSHR THRESHOLD FROM 3 TO 2
OFFSET CHANGED FROM 8 TO 8
CHANGING MSHR THRESHOLD FROM 2 TO MAX 28
OFFSET CHANGED FROM 8 TO 8
Heartbeat CPU 0 instructions: 40000000 cycles: 14927078 heartbeat IPC: 2.67217 cumulative IPC: 2.67969 (Simulation time: 0 hr 1 min 52 sec) 
OFFSET CHANGED FROM 8 TO 3
OFFSET CHANGED FROM 3 TO -8
OFFSET CHANGED FROM -8 TO 2
CHANGING MSHR THRESHOLD FROM 28 TO 26
CHANGING MSHR THRESHOLD FROM 26 TO 24
CHANGING MSHR THRESHOLD FROM 24 TO 23
OFFSET CHANGED FROM 2 TO 3
CHANGING MSHR THRESHOLD FROM 23 TO MAX 28
OFFSET CHANGED FROM 3 TO 3
OFFSET CHANGED FROM 3 TO 3
OFFSET CHANGED FROM 3 TO 2
OFFSET CHANGED FROM 2 TO 2
OFFSET CHANGED FROM 2 TO 2
OFFSET CHANGED FROM 2 TO 2
OFFSET CHANGED FROM 2 TO 1
Heartbeat CPU 0 instructions: 50000000 cycles: 18350313 heartbeat IPC: 2.92121 cumulative IPC: 2.72475 (Simulation time: 0 hr 2 min 20 sec) 

Warmup complete CPU 0 instructions: 50000004 cycles: 18350314 (Simulation time: 0 hr 2 min 20 sec) 

OFFSET CHANGED FROM 1 TO 3
OFFSET CHANGED FROM 3 TO 1
OFFSET CHANGED FROM 1 TO 1
OFFSET CHANGED FROM 1 TO 8
OFFSET CHANGED FROM 8 TO 13
OFFSET CHANGED FROM 13 TO 2
OFFSET CHANGED FROM 2 TO 1
OFFSET CHANGED FROM 1 TO 1
OFFSET CHANGED FROM 1 TO 1
OFFSET CHANGED FROM 1 TO 1
Heartbeat CPU 0 instructions: 60000000 cycles: 23679818 heartbeat IPC: 1.87635 cumulative IPC: 1.87635 (Simulation time: 0 hr 2 min 36 sec) 
OFFSET CHANGED FROM 1 TO 1
OFFSET CHANGED FROM 1 TO 10
OFFSET CHANGED FROM 10 TO 13
OFFSET CHANGED FROM 13 TO 10
OFFSET CHANGED FROM 10 TO 5
OFFSET CHANGED FROM 5 TO 6
OFFSET CHANGED FROM 6 TO 3
OFFSET CHANGED FROM 3 TO 5
OFFSET CHANGED FROM 5 TO 8
OFFSET CHANGED FROM 8 TO 8
OFFSET CHANGED FROM 8 TO 16
OFFSET CHANGED FROM 16 TO 13
Heartbeat CPU 0 instructions: 70000000 cycles: 27874640 heartbeat IPC: 2.38389 cumulative IPC: 2.09989 (Simulation time: 0 hr 2 min 57 sec) 
OFFSET CHANGED FROM 13 TO 5
OFFSET CHANGED FROM 5 TO 6
OFFSET CHANGED FROM 6 TO 4
OFFSET CHANGED FROM 4 TO 8
OFFSET CHANGED FROM 8 TO 3
OFFSET CHANGED FROM 3 TO 10
OFFSET CHANGED FROM 10 TO 15
OFFSET CHANGED FROM 15 TO 16
OFFSET CHANGED FROM 16 TO 11
OFFSET CHANGED FROM 11 TO 4
OFFSET CHANGED FROM 4 TO 18
OFFSET CHANGED FROM 18 TO 11
OFFSET CHANGED FROM 11 TO 8
Heartbeat CPU 0 instructions: 80000001 cycles: 31943957 heartbeat IPC: 2.45742 cumulative IPC: 2.20691 (Simulation time: 0 hr 3 min 18 sec) 
OFFSET CHANGED FROM 8 TO 4
OFFSET CHANGED FROM 4 TO 5
OFFSET CHANGED FROM 5 TO 14
OFFSET CHANGED FROM 14 TO 14
OFFSET CHANGED FROM 14 TO 5
OFFSET CHANGED FROM 5 TO 5
OFFSET CHANGED FROM 5 TO 12
OFFSET CHANGED FROM 12 TO 12
OFFSET CHANGED FROM 12 TO 2
OFFSET CHANGED FROM 2 TO 14
OFFSET CHANGED FROM 14 TO 4
OFFSET CHANGED FROM 4 TO 1
Heartbeat CPU 0 instructions: 90000002 cycles: 36008959 heartbeat IPC: 2.46002 cumulative IPC: 2.26518 (Simulation time: 0 hr 3 min 39 sec) 
OFFSET CHANGED FROM 1 TO 6
OFFSET CHANGED FROM 6 TO 7
OFFSET CHANGED FROM 7 TO 4
OFFSET CHANGED FROM 4 TO 1
OFFSET CHANGED FROM 1 TO 2
OFFSET CHANGED FROM 2 TO 8
OFFSET CHANGED FROM 8 TO 4
OFFSET CHANGED FROM 4 TO 10
OFFSET CHANGED FROM 10 TO 2
OFFSET CHANGED FROM 2 TO 5
OFFSET CHANGED FROM 5 TO 15
OFFSET CHANGED FROM 15 TO 3
Heartbeat CPU 0 instructions: 100000000 cycles: 40065021 heartbeat IPC: 2.46545 cumulative IPC: 2.30259 (Simulation time: 0 hr 4 min 1 sec) 
OFFSET CHANGED FROM 3 TO 9
OFFSET CHANGED FROM 9 TO 5
OFFSET CHANGED FROM 5 TO 7
OFFSET CHANGED FROM 7 TO 13
OFFSET CHANGED FROM 13 TO 2
OFFSET CHANGED FROM 2 TO 5
OFFSET CHANGED FROM 5 TO 9
OFFSET CHANGED FROM 9 TO 9
OFFSET CHANGED FROM 9 TO 10
OFFSET CHANGED FROM 10 TO 10
OFFSET CHANGED FROM 10 TO 10
OFFSET CHANGED FROM 10 TO 7
Heartbeat CPU 0 instructions: 110000000 cycles: 44122545 heartbeat IPC: 2.46456 cumulative IPC: 2.32809 (Simulation time: 0 hr 4 min 22 sec) 
OFFSET CHANGED FROM 7 TO 4
OFFSET CHANGED FROM 4 TO 11
OFFSET CHANGED FROM 11 TO 10
OFFSET CHANGED FROM 10 TO 3
OFFSET CHANGED FROM 3 TO 5
OFFSET CHANGED FROM 5 TO 9
OFFSET CHANGED FROM 9 TO 18
OFFSET CHANGED FROM 18 TO 3
OFFSET CHANGED FROM 3 TO 11
OFFSET CHANGED FROM 11 TO 8
OFFSET CHANGED FROM 8 TO 18
OFFSET CHANGED FROM 18 TO 11
Heartbeat CPU 0 instructions: 120000002 cycles: 48180984 heartbeat IPC: 2.464 cumulative IPC: 2.34658 (Simulation time: 0 hr 4 min 43 sec) 
OFFSET CHANGED FROM 11 TO 9
OFFSET CHANGED FROM 9 TO 4
OFFSET CHANGED FROM 4 TO 5
OFFSET CHANGED FROM 5 TO 9
OFFSET CHANGED FROM 9 TO 1
OFFSET CHANGED FROM 1 TO 5
OFFSET CHANGED FROM 5 TO -5
OFFSET CHANGED FROM -5 TO 14
OFFSET CHANGED FROM 14 TO 3
OFFSET CHANGED FROM 3 TO 9
OFFSET CHANGED FROM 9 TO 14
OFFSET CHANGED FROM 14 TO 18
OFFSET CHANGED FROM 18 TO 8
Heartbeat CPU 0 instructions: 130000000 cycles: 52241934 heartbeat IPC: 2.46248 cumulative IPC: 2.36047 (Simulation time: 0 hr 5 min 5 sec) 
OFFSET CHANGED FROM 8 TO 8
OFFSET CHANGED FROM 8 TO 10
OFFSET CHANGED FROM 10 TO 7
OFFSET CHANGED FROM 7 TO 7
OFFSET CHANGED FROM 7 TO 9
OFFSET CHANGED FROM 9 TO 8
OFFSET CHANGED FROM 8 TO 5
OFFSET CHANGED FROM 5 TO 18
OFFSET CHANGED FROM 18 TO 5
OFFSET CHANGED FROM 5 TO 8
OFFSET CHANGED FROM 8 TO 14
OFFSET CHANGED FROM 14 TO 7
Heartbeat CPU 0 instructions: 140000002 cycles: 56299738 heartbeat IPC: 2.46439 cumulative IPC: 2.37158 (Simulation time: 0 hr 5 min 27 sec) 
OFFSET CHANGED FROM 7 TO 12
OFFSET CHANGED FROM 12 TO 1
OFFSET CHANGED FROM 1 TO 6
OFFSET CHANGED FROM 6 TO 11
OFFSET CHANGED FROM 11 TO 10
OFFSET CHANGED FROM 10 TO 7
OFFSET CHANGED FROM 7 TO 3
OFFSET CHANGED FROM 3 TO 5
OFFSET CHANGED FROM 5 TO 9
OFFSET CHANGED FROM 9 TO 15
OFFSET CHANGED FROM 15 TO 6
OFFSET CHANGED FROM 6 TO 18
Heartbeat CPU 0 instructions: 150000000 cycles: 60353044 heartbeat IPC: 2.46712 cumulative IPC: 2.3808 (Simulation time: 0 hr 5 min 47 sec) 
OFFSET CHANGED FROM 18 TO 14
OFFSET CHANGED FROM 14 TO 10
OFFSET CHANGED FROM 10 TO 8
OFFSET CHANGED FROM 8 TO 7
OFFSET CHANGED FROM 7 TO 8
OFFSET CHANGED FROM 8 TO 10
OFFSET CHANGED FROM 10 TO 12
OFFSET CHANGED FROM 12 TO 20
OFFSET CHANGED FROM 20 TO 12
OFFSET CHANGED FROM 12 TO 18
OFFSET CHANGED FROM 18 TO 9
OFFSET CHANGED FROM 9 TO 16
Heartbeat CPU 0 instructions: 160000002 cycles: 64411474 heartbeat IPC: 2.46401 cumulative IPC: 2.38813 (Simulation time: 0 hr 6 min 8 sec) 
OFFSET CHANGED FROM 16 TO 7
OFFSET CHANGED FROM 7 TO 4
OFFSET CHANGED FROM 4 TO -15
OFFSET CHANGED FROM -15 TO -8
OFFSET CHANGED FROM -8 TO -18
OFFSET CHANGED FROM -18 TO -10
OFFSET CHANGED FROM -10 TO 1
OFFSET CHANGED FROM 1 TO 1
OFFSET CHANGED FROM 1 TO 5
OFFSET CHANGED FROM 5 TO 11
OFFSET CHANGED FROM 11 TO 6
OFFSET CHANGED FROM 6 TO 15
Heartbeat CPU 0 instructions: 170000001 cycles: 68480783 heartbeat IPC: 2.45742 cumulative IPC: 2.39375 (Simulation time: 0 hr 6 min 29 sec) 
OFFSET CHANGED FROM 15 TO 2
OFFSET CHANGED FROM 2 TO 1
OFFSET CHANGED FROM 1 TO 2
OFFSET CHANGED FROM 2 TO 6
OFFSET CHANGED FROM 6 TO 5
OFFSET CHANGED FROM 5 TO 10
OFFSET CHANGED FROM 10 TO 12
OFFSET CHANGED FROM 12 TO -2
OFFSET CHANGED FROM -2 TO 6
OFFSET CHANGED FROM 6 TO 8
OFFSET CHANGED FROM 8 TO 7
Heartbeat CPU 0 instructions: 180000002 cycles: 72541303 heartbeat IPC: 2.46274 cumulative IPC: 2.39892 (Simulation time: 0 hr 6 min 49 sec) 
OFFSET CHANGED FROM 7 TO 7
OFFSET CHANGED FROM 7 TO 7
OFFSET CHANGED FROM 7 TO 4
OFFSET CHANGED FROM 4 TO 5
OFFSET CHANGED FROM 5 TO 12
OFFSET CHANGED FROM 12 TO 12
OFFSET CHANGED FROM 12 TO 16
OFFSET CHANGED FROM 16 TO 24
OFFSET CHANGED FROM 24 TO 15
OFFSET CHANGED FROM 15 TO 18
OFFSET CHANGED FROM 18 TO 10
OFFSET CHANGED FROM 10 TO 13
Heartbeat CPU 0 instructions: 190000000 cycles: 76607002 heartbeat IPC: 2.4596 cumulative IPC: 2.40316 (Simulation time: 0 hr 7 min 10 sec) 
OFFSET CHANGED FROM 13 TO 7
OFFSET CHANGED FROM 7 TO 6
OFFSET CHANGED FROM 6 TO 8
OFFSET CHANGED FROM 8 TO 2
OFFSET CHANGED FROM 2 TO 5
OFFSET CHANGED FROM 5 TO 2
OFFSET CHANGED FROM 2 TO -9
OFFSET CHANGED FROM -9 TO 1
OFFSET CHANGED FROM 1 TO 9
OFFSET CHANGED FROM 9 TO 3
OFFSET CHANGED FROM 3 TO 10
OFFSET CHANGED FROM 10 TO 5
Heartbeat CPU 0 instructions: 200000001 cycles: 80677060 heartbeat IPC: 2.45697 cumulative IPC: 2.40667 (Simulation time: 0 hr 7 min 31 sec) 
OFFSET CHANGED FROM 5 TO 9
OFFSET CHANGED FROM 9 TO 5
OFFSET CHANGED FROM 5 TO 6
OFFSET CHANGED FROM 6 TO 9
OFFSET CHANGED FROM 9 TO 9
OFFSET CHANGED FROM 9 TO 7
OFFSET CHANGED FROM 7 TO 9
OFFSET CHANGED FROM 9 TO 3
OFFSET CHANGED FROM 3 TO 6
OFFSET CHANGED FROM 6 TO -3
OFFSET CHANGED FROM -3 TO -8
OFFSET CHANGED FROM -8 TO -8
Heartbeat CPU 0 instructions: 210000003 cycles: 84754069 heartbeat IPC: 2.45278 cumulative IPC: 2.4095 (Simulation time: 0 hr 7 min 51 sec) 
OFFSET CHANGED FROM -8 TO 10
OFFSET CHANGED FROM 10 TO 10
OFFSET CHANGED FROM 10 TO 2
OFFSET CHANGED FROM 2 TO 7
OFFSET CHANGED FROM 7 TO 24
OFFSET CHANGED FROM 24 TO 13
OFFSET CHANGED FROM 13 TO 7
OFFSET CHANGED FROM 7 TO 6
OFFSET CHANGED FROM 6 TO 5
OFFSET CHANGED FROM 5 TO 4
OFFSET CHANGED FROM 4 TO 3
OFFSET CHANGED FROM 3 TO 3
OFFSET CHANGED FROM 3 TO 1
OFFSET CHANGED FROM 1 TO 1
OFFSET CHANGED FROM 1 TO 2
OFFSET CHANGED FROM 2 TO 3
OFFSET CHANGED FROM 3 TO 3
Heartbeat CPU 0 instructions: 220000000 cycles: 89369116 heartbeat IPC: 2.16682 cumulative IPC: 2.39373 (Simulation time: 0 hr 8 min 13 sec) 
OFFSET CHANGED FROM 3 TO 5
OFFSET CHANGED FROM 5 TO 4
OFFSET CHANGED FROM 4 TO 2
OFFSET CHANGED FROM 2 TO 2
OFFSET CHANGED FROM 2 TO 4
OFFSET CHANGED FROM 4 TO 2
OFFSET CHANGED FROM 2 TO 2
OFFSET CHANGED FROM 2 TO 4
OFFSET CHANGED FROM 4 TO 2
OFFSET CHANGED FROM 2 TO 2
OFFSET CHANGED FROM 2 TO 4
OFFSET CHANGED FROM 4 TO 2
OFFSET CHANGED FROM 2 TO 1
OFFSET CHANGED FROM 1 TO 1
OFFSET CHANGED FROM 1 TO 1
OFFSET CHANGED FROM 1 TO 1
OFFSET CHANGED FROM 1 TO 3
OFFSET CHANGED FROM 3 TO 1
OFFSET CHANGED FROM 1 TO 1
OFFSET CHANGED FROM 1 TO 1
OFFSET CHANGED FROM 1 TO 1
OFFSET CHANGED FROM 1 TO 1
OFFSET CHANGED FROM 1 TO 2
OFFSET CHANGED FROM 2 TO 4
OFFSET CHANGED FROM 4 TO 4
OFFSET CHANGED FROM 4 TO 4
OFFSET CHANGED FROM 4 TO 3
OFFSET CHANGED FROM 3 TO 2
OFFSET CHANGED FROM 2 TO 3
OFFSET CHANGED FROM 3 TO 2
OFFSET CHANGED FROM 2 TO 2
OFFSET CHANGED FROM 2 TO 5
OFFSET CHANGED FROM 5 TO 2
OFFSET CHANGED FROM 2 TO 3
Heartbeat CPU 0 instructions: 230000001 cycles: 95732667 heartbeat IPC: 1.57145 cumulative IPC: 2.32611 (Simulation time: 0 hr 8 min 32 sec) 
OFFSET CHANGED FROM 3 TO 2
OFFSET CHANGED FROM 2 TO 2
OFFSET CHANGED FROM 2 TO 2
OFFSET CHANGED FROM 2 TO 7
OFFSET CHANGED FROM 7 TO 7
OFFSET CHANGED FROM 7 TO 2
OFFSET CHANGED FROM 2 TO 6
OFFSET CHANGED FROM 6 TO 2
OFFSET CHANGED FROM 2 TO 1
OFFSET CHANGED FROM 1 TO 3
OFFSET CHANGED FROM 3 TO 1
OFFSET CHANGED FROM 1 TO 1
OFFSET CHANGED FROM 1 TO 3
OFFSET CHANGED FROM 3 TO 5
OFFSET CHANGED FROM 5 TO 1
OFFSET CHANGED FROM 1 TO 2
OFFSET CHANGED FROM 2 TO 2
OFFSET CHANGED FROM 2 TO 3
OFFSET CHANGED FROM 3 TO 4
OFFSET CHANGED FROM 4 TO 5
OFFSET CHANGED FROM 5 TO 7
OFFSET CHANGED FROM 7 TO 5
OFFSET CHANGED FROM 5 TO 7
OFFSET CHANGED FROM 7 TO 7
OFFSET CHANGED FROM 7 TO 8
OFFSET CHANGED FROM 8 TO 8
OFFSET CHANGED FROM 8 TO 9
OFFSET CHANGED FROM 9 TO 10
OFFSET CHANGED FROM 10 TO 2
OFFSET CHANGED FROM 2 TO 1
OFFSET CHANGED FROM 1 TO 1
OFFSET CHANGED FROM 1 TO 3
OFFSET CHANGED FROM 3 TO 1
OFFSET CHANGED FROM 1 TO 1
OFFSET CHANGED FROM 1 TO 2
OFFSET CHANGED FROM 2 TO 3
OFFSET CHANGED FROM 3 TO 4
OFFSET CHANGED FROM 4 TO 5
OFFSET CHANGED FROM 5 TO 1
OFFSET CHANGED FROM 1 TO 3
Heartbeat CPU 0 instructions: 240000001 cycles: 101873176 heartbeat IPC: 1.62853 cumulative IPC: 2.27483 (Simulation time: 0 hr 8 min 52 sec) 
OFFSET CHANGED FROM 3 TO 4
OFFSET CHANGED FROM 4 TO 3
OFFSET CHANGED FROM 3 TO 4
OFFSET CHANGED FROM 4 TO 3
OFFSET CHANGED FROM 3 TO 3
OFFSET CHANGED FROM 3 TO 8
OFFSET CHANGED FROM 8 TO 6
OFFSET CHANGED FROM 6 TO 6
OFFSET CHANGED FROM 6 TO 6
OFFSET CHANGED FROM 6 TO 4
OFFSET CHANGED FROM 4 TO 5
OFFSET CHANGED FROM 5 TO 8
OFFSET CHANGED FROM 8 TO 9
OFFSET CHANGED FROM 9 TO 2
OFFSET CHANGED FROM 2 TO 2
OFFSET CHANGED FROM 2 TO 4
OFFSET CHANGED FROM 4 TO 1
Heartbeat CPU 0 instructions: 250000002 cycles: 107585943 heartbeat IPC: 1.75047 cumulative IPC: 2.24126 (Simulation time: 0 hr 9 min 11 sec) 
OFFSET CHANGED FROM 1 TO 2
OFFSET CHANGED FROM 2 TO 5
OFFSET CHANGED FROM 5 TO 7
OFFSET CHANGED FROM 7 TO 1
OFFSET CHANGED FROM 1 TO 7
OFFSET CHANGED FROM 7 TO 1
OFFSET CHANGED FROM 1 TO 2
OFFSET CHANGED FROM 2 TO 1
OFFSET CHANGED FROM 1 TO 1
OFFSET CHANGED FROM 1 TO 4
OFFSET CHANGED FROM 4 TO 6
Heartbeat CPU 0 instructions: 260000000 cycles: 112836457 heartbeat IPC: 1.90458 cumulative IPC: 2.22255 (Simulation time: 0 hr 9 min 28 sec) 
OFFSET CHANGED FROM 6 TO 1
OFFSET CHANGED FROM 1 TO 3
OFFSET CHANGED FROM 3 TO 6
OFFSET CHANGED FROM 6 TO 1
OFFSET CHANGED FROM 1 TO 16
OFFSET CHANGED FROM 16 TO 24
OFFSET CHANGED FROM 24 TO 3
OFFSET CHANGED FROM 3 TO 2
OFFSET CHANGED FROM 2 TO 11
OFFSET CHANGED FROM 11 TO 16
OFFSET CHANGED FROM 16 TO 3
OFFSET CHANGED FROM 3 TO 9
OFFSET CHANGED FROM 9 TO 2
Heartbeat CPU 0 instructions: 270000002 cycles: 116899892 heartbeat IPC: 2.46097 cumulative IPC: 2.23238 (Simulation time: 0 hr 9 min 50 sec) 
OFFSET CHANGED FROM 2 TO 4
OFFSET CHANGED FROM 4 TO 4
OFFSET CHANGED FROM 4 TO 13
OFFSET CHANGED FROM 13 TO 14
OFFSET CHANGED FROM 14 TO 3
OFFSET CHANGED FROM 3 TO 18
OFFSET CHANGED FROM 18 TO 10
OFFSET CHANGED FROM 10 TO 12
OFFSET CHANGED FROM 12 TO 5
OFFSET CHANGED FROM 5 TO 13
OFFSET CHANGED FROM 13 TO 18
OFFSET CHANGED FROM 18 TO 1
Heartbeat CPU 0 instructions: 280000000 cycles: 120956174 heartbeat IPC: 2.46531 cumulative IPC: 2.24159 (Simulation time: 0 hr 10 min 12 sec) 
OFFSET CHANGED FROM 1 TO 6
OFFSET CHANGED FROM 6 TO 9
OFFSET CHANGED FROM 9 TO 12
OFFSET CHANGED FROM 12 TO 10
OFFSET CHANGED FROM 10 TO 2
OFFSET CHANGED FROM 2 TO 3
OFFSET CHANGED FROM 3 TO 7
OFFSET CHANGED FROM 7 TO 7
OFFSET CHANGED FROM 7 TO 10
OFFSET CHANGED FROM 10 TO 13
OFFSET CHANGED FROM 13 TO 18
OFFSET CHANGED FROM 18 TO 3
Heartbeat CPU 0 instructions: 290000001 cycles: 125008280 heartbeat IPC: 2.46785 cumulative IPC: 2.25018 (Simulation time: 0 hr 10 min 33 sec) 
OFFSET CHANGED FROM 3 TO 4
OFFSET CHANGED FROM 4 TO 2
OFFSET CHANGED FROM 2 TO 5
OFFSET CHANGED FROM 5 TO 1
OFFSET CHANGED FROM 1 TO 5
OFFSET CHANGED FROM 5 TO 4
OFFSET CHANGED FROM 4 TO 13
OFFSET CHANGED FROM 13 TO 15
OFFSET CHANGED FROM 15 TO 18
OFFSET CHANGED FROM 18 TO 7
OFFSET CHANGED FROM 7 TO 14
OFFSET CHANGED FROM 14 TO 32
Heartbeat CPU 0 instructions: 300000002 cycles: 129064753 heartbeat IPC: 2.4652 cumulative IPC: 2.25806 (Simulation time: 0 hr 10 min 54 sec) 
Finished CPU 0 instructions: 250000002 cycles: 110714440 cumulative IPC: 2.25806 (Simulation time: 0 hr 10 min 54 sec) 

ChampSim completed all CPUs

Region of Interest Statistics

CPU 0 cumulative IPC: 2.25806 instructions: 250000002 cycles: 110714440
L1D TOTAL     ACCESS:   64093711  HIT:   62725116  MISS:    1368595
L1D LOAD      ACCESS:   30396616  HIT:   29064975  MISS:    1331641
L1D RFO       ACCESS:   33697095  HIT:   33660141  MISS:      36954
L1D PREFETCH  ACCESS:          0  HIT:          0  MISS:          0
L1D WRITEBACK ACCESS:          0  HIT:          0  MISS:          0
L1D PREFETCH  REQUESTED:          0  ISSUED:          0  USEFUL:          0  USELESS:          0
L1D AVERAGE MISS LATENCY: 21.8685 cycles
L1I TOTAL     ACCESS:   33974113  HIT:   33973170  MISS:        943
L1I LOAD      ACCESS:   33973771  HIT:   33973121  MISS:        650
L1I RFO       ACCESS:          0  HIT:          0  MISS:          0
L1I PREFETCH  ACCESS:        342  HIT:         49  MISS:        293
L1I WRITEBACK ACCESS:          0  HIT:          0  MISS:          0
L1I PREFETCH  REQUESTED:        903  ISSUED:        903  USEFUL:        211  USELESS:         57
L1I AVERAGE MISS LATENCY: 98.4221 cycles
L2C TOTAL     ACCESS:    3154236  HIT:    2898607  MISS:     255629
L2C LOAD      ACCESS:    1331805  HIT:    1291022  MISS:      40783
L2C RFO       ACCESS:      36954  HIT:       1442  MISS:      35512
L2C PREFETCH  ACCESS:    1167943  HIT:     988644  MISS:     179299
L2C WRITEBACK ACCESS:     617534  HIT:     617499  MISS:         35
L2C PREFETCH  REQUESTED:    1172813  ISSUED:    1172813  USEFUL:     169475  USELESS:      10743
L2C AVERAGE MISS LATENCY: 104.801 cycles
LLC TOTAL     ACCESS:     325355  HIT:     191204  MISS:     134151
LLC LOAD      ACCESS:      37019  HIT:      23400  MISS:      13619
LLC RFO       ACCESS:      35511  HIT:       7004  MISS:      28507
LLC PREFETCH  ACCESS:     183063  HIT:      91102  MISS:      91961
LLC WRITEBACK ACCESS:      69762  HIT:      69698  MISS:         64
LLC PREFETCH  REQUESTED:          0  ISSUED:          0  USEFUL:       6752  USELESS:      77822
LLC AVERAGE MISS LATENCY: 146.963 cycles
Major fault: 0 Minor fault: 1832
CPU 0 L1I next line prefetcher final stats
CPU 0 L2C best offset prefetcher final stats

DRAM Statistics
 CHANNEL 0
 RQ ROW_BUFFER_HIT:      61308  ROW_BUFFER_MISS:      72726
 DBUS_CONGESTED:      24286
 WQ ROW_BUFFER_HIT:       9437  ROW_BUFFER_MISS:      33321  FULL:          0

 AVG_CONGESTED_CYCLE: 6

CPU 0 Branch Prediction Accuracy: 92.5963% MPKI: 0.606944 Average ROB Occupancy at Mispredict: 57.3941

Branch types
NOT_BRANCH: 247950236 99.1801%
BRANCH_DIRECT_JUMP: 78610 0.031444%
BRANCH_INDIRECT: 11 4.4e-06%
BRANCH_CONDITIONAL: 1899976 0.75999%
BRANCH_DIRECT_CALL: 35426 0.0141704%
BRANCH_INDIRECT_CALL: 4 1.6e-06%
BRANCH_RETURN: 35430 0.014172%
BRANCH_OTHER: 0 0%

