
*** ChampSim Multicore Out-of-Order Simulator ***

Warmup Instructions: 50000000
Simulation Instructions: 250000000
Number of CPUs: 1
LLC sets: 2048
LLC ways: 16
Off-chip DRAM Size: 4096 MB Channels: 1 Width: 64-bit Data Rate: 3200 MT/s

CPU 0 runs /home/wezelis2/ECE511_Project/ChampSim/dpc3_traces/444.namd-166B.champsimtrace.xz
CPU 0 Bimodal branch predictor
CPU 0 L1I next line prefetcher
INIT BEST RECENT REQUEST TABLE MODULE
INIT DELAY QUEUE MODULE
INIT PREFETCH THROTTLE MODULE
INIT OFFSET SCORE MODULE
INIT BEST OFFSET PREFETCHER
OFFSET CHANGED FROM 1 TO 2
OFFSET CHANGED FROM 2 TO 16
OFFSET CHANGED FROM 16 TO -3
OFFSET CHANGED FROM -3 TO 2
OFFSET CHANGED FROM 2 TO 14
OFFSET CHANGED FROM 14 TO 3
Heartbeat CPU 0 instructions: 10000003 cycles: 3856370 heartbeat IPC: 2.59311 cumulative IPC: 2.59311 (Simulation time: 0 hr 0 min 28 sec) 
OFFSET CHANGED FROM 3 TO 2
OFFSET CHANGED FROM 2 TO 8
OFFSET CHANGED FROM 8 TO 3
OFFSET CHANGED FROM 3 TO 1
Heartbeat CPU 0 instructions: 20000002 cycles: 7731699 heartbeat IPC: 2.58043 cumulative IPC: 2.58675 (Simulation time: 0 hr 0 min 55 sec) 
OFFSET CHANGED FROM 1 TO 1
OFFSET CHANGED FROM 1 TO 3
OFFSET CHANGED FROM 3 TO 2
OFFSET CHANGED FROM 2 TO 2
Heartbeat CPU 0 instructions: 30000002 cycles: 11385706 heartbeat IPC: 2.73672 cumulative IPC: 2.63488 (Simulation time: 0 hr 1 min 22 sec) 
OFFSET CHANGED FROM 2 TO 5
OFFSET CHANGED FROM 5 TO 1
OFFSET CHANGED FROM 1 TO 15
OFFSET CHANGED FROM 15 TO 4
OFFSET CHANGED FROM 4 TO 3
Heartbeat CPU 0 instructions: 40000003 cycles: 15212855 heartbeat IPC: 2.61291 cumulative IPC: 2.62936 (Simulation time: 0 hr 1 min 50 sec) 
OFFSET CHANGED FROM 3 TO 18
OFFSET CHANGED FROM 18 TO 1
OFFSET CHANGED FROM 1 TO 4
Heartbeat CPU 0 instructions: 50000001 cycles: 18851140 heartbeat IPC: 2.74855 cumulative IPC: 2.65236 (Simulation time: 0 hr 2 min 15 sec) 

Warmup complete CPU 0 instructions: 50000001 cycles: 18851140 (Simulation time: 0 hr 2 min 15 sec) 

OFFSET CHANGED FROM 4 TO 3
OFFSET CHANGED FROM 3 TO 4
OFFSET CHANGED FROM 4 TO 7
OFFSET CHANGED FROM 7 TO 2
OFFSET CHANGED FROM 2 TO 1
Heartbeat CPU 0 instructions: 60000002 cycles: 24265598 heartbeat IPC: 1.84691 cumulative IPC: 1.84691 (Simulation time: 0 hr 2 min 37 sec) 
OFFSET CHANGED FROM 1 TO 2
OFFSET CHANGED FROM 2 TO 3
OFFSET CHANGED FROM 3 TO 6
OFFSET CHANGED FROM 6 TO 3
Heartbeat CPU 0 instructions: 70000000 cycles: 29674061 heartbeat IPC: 1.84895 cumulative IPC: 1.84793 (Simulation time: 0 hr 2 min 59 sec) 
OFFSET CHANGED FROM 3 TO 20
OFFSET CHANGED FROM 20 TO 6
OFFSET CHANGED FROM 6 TO 3
OFFSET CHANGED FROM 3 TO 3
Heartbeat CPU 0 instructions: 80000003 cycles: 34918929 heartbeat IPC: 1.90663 cumulative IPC: 1.86709 (Simulation time: 0 hr 3 min 17 sec) 
OFFSET CHANGED FROM 3 TO 5
OFFSET CHANGED FROM 5 TO 7
OFFSET CHANGED FROM 7 TO 3
OFFSET CHANGED FROM 3 TO 3
OFFSET CHANGED FROM 3 TO 6
Heartbeat CPU 0 instructions: 90000001 cycles: 40300245 heartbeat IPC: 1.85828 cumulative IPC: 1.86488 (Simulation time: 0 hr 3 min 38 sec) 
OFFSET CHANGED FROM 6 TO 1
OFFSET CHANGED FROM 1 TO 3
OFFSET CHANGED FROM 3 TO 2
Heartbeat CPU 0 instructions: 100000001 cycles: 45655279 heartbeat IPC: 1.8674 cumulative IPC: 1.86538 (Simulation time: 0 hr 3 min 57 sec) 
OFFSET CHANGED FROM 2 TO 2
OFFSET CHANGED FROM 2 TO 2
OFFSET CHANGED FROM 2 TO 10
OFFSET CHANGED FROM 10 TO 5
OFFSET CHANGED FROM 5 TO 8
OFFSET CHANGED FROM 8 TO 2
Heartbeat CPU 0 instructions: 110000000 cycles: 51137060 heartbeat IPC: 1.82422 cumulative IPC: 1.8584 (Simulation time: 0 hr 4 min 17 sec) 
OFFSET CHANGED FROM 2 TO 5
OFFSET CHANGED FROM 5 TO 12
OFFSET CHANGED FROM 12 TO 3
OFFSET CHANGED FROM 3 TO 1
OFFSET CHANGED FROM 1 TO 4
Heartbeat CPU 0 instructions: 120000003 cycles: 56642523 heartbeat IPC: 1.81638 cumulative IPC: 1.85227 (Simulation time: 0 hr 4 min 39 sec) 
OFFSET CHANGED FROM 4 TO 2
OFFSET CHANGED FROM 2 TO 2
OFFSET CHANGED FROM 2 TO 3
Heartbeat CPU 0 instructions: 130000001 cycles: 61942632 heartbeat IPC: 1.88675 cumulative IPC: 1.85651 (Simulation time: 0 hr 4 min 58 sec) 
OFFSET CHANGED FROM 3 TO 3
OFFSET CHANGED FROM 3 TO 2
OFFSET CHANGED FROM 2 TO 1
OFFSET CHANGED FROM 1 TO 1
Heartbeat CPU 0 instructions: 140000002 cycles: 67337743 heartbeat IPC: 1.85353 cumulative IPC: 1.85618 (Simulation time: 0 hr 5 min 18 sec) 
OFFSET CHANGED FROM 1 TO 2
OFFSET CHANGED FROM 2 TO 3
OFFSET CHANGED FROM 3 TO 1
Heartbeat CPU 0 instructions: 150000001 cycles: 72713210 heartbeat IPC: 1.8603 cumulative IPC: 1.85659 (Simulation time: 0 hr 5 min 37 sec) 
OFFSET CHANGED FROM 1 TO 3
OFFSET CHANGED FROM 3 TO 3
OFFSET CHANGED FROM 3 TO 5
OFFSET CHANGED FROM 5 TO 4
OFFSET CHANGED FROM 4 TO 2
Heartbeat CPU 0 instructions: 160000003 cycles: 78165274 heartbeat IPC: 1.83417 cumulative IPC: 1.85453 (Simulation time: 0 hr 5 min 56 sec) 
OFFSET CHANGED FROM 2 TO 1
OFFSET CHANGED FROM 1 TO 9
OFFSET CHANGED FROM 9 TO 4
OFFSET CHANGED FROM 4 TO 5
OFFSET CHANGED FROM 5 TO 2
Heartbeat CPU 0 instructions: 170000000 cycles: 83593173 heartbeat IPC: 1.84233 cumulative IPC: 1.85351 (Simulation time: 0 hr 6 min 15 sec) 
OFFSET CHANGED FROM 2 TO 9
OFFSET CHANGED FROM 9 TO 6
OFFSET CHANGED FROM 6 TO -4
OFFSET CHANGED FROM -4 TO 1
Heartbeat CPU 0 instructions: 180000002 cycles: 89073225 heartbeat IPC: 1.8248 cumulative IPC: 1.85127 (Simulation time: 0 hr 6 min 35 sec) 
OFFSET CHANGED FROM 1 TO 4
OFFSET CHANGED FROM 4 TO 4
OFFSET CHANGED FROM 4 TO 8
Heartbeat CPU 0 instructions: 190000002 cycles: 94353993 heartbeat IPC: 1.89366 cumulative IPC: 1.85423 (Simulation time: 0 hr 6 min 53 sec) 
OFFSET CHANGED FROM 8 TO 3
OFFSET CHANGED FROM 3 TO 2
OFFSET CHANGED FROM 2 TO 9
OFFSET CHANGED FROM 9 TO 3
OFFSET CHANGED FROM 3 TO 2
OFFSET CHANGED FROM 2 TO 6
Heartbeat CPU 0 instructions: 200000000 cycles: 100025667 heartbeat IPC: 1.76315 cumulative IPC: 1.84787 (Simulation time: 0 hr 7 min 16 sec) 
OFFSET CHANGED FROM 6 TO 3
OFFSET CHANGED FROM 3 TO 2
OFFSET CHANGED FROM 2 TO 3
OFFSET CHANGED FROM 3 TO 3
Heartbeat CPU 0 instructions: 210000000 cycles: 105548254 heartbeat IPC: 1.81075 cumulative IPC: 1.84551 (Simulation time: 0 hr 7 min 36 sec) 
OFFSET CHANGED FROM 3 TO 1
OFFSET CHANGED FROM 1 TO 1
OFFSET CHANGED FROM 1 TO 3
OFFSET CHANGED FROM 3 TO 2
OFFSET CHANGED FROM 2 TO 2
Heartbeat CPU 0 instructions: 220000000 cycles: 111025148 heartbeat IPC: 1.82585 cumulative IPC: 1.84434 (Simulation time: 0 hr 7 min 56 sec) 
OFFSET CHANGED FROM 2 TO 8
OFFSET CHANGED FROM 8 TO 3
OFFSET CHANGED FROM 3 TO 1
Heartbeat CPU 0 instructions: 230000002 cycles: 116396518 heartbeat IPC: 1.86172 cumulative IPC: 1.8453 (Simulation time: 0 hr 8 min 14 sec) 
OFFSET CHANGED FROM 1 TO 6
OFFSET CHANGED FROM 6 TO 4
OFFSET CHANGED FROM 4 TO 1
OFFSET CHANGED FROM 1 TO 9
OFFSET CHANGED FROM 9 TO 6
Heartbeat CPU 0 instructions: 240000000 cycles: 121793512 heartbeat IPC: 1.85288 cumulative IPC: 1.84569 (Simulation time: 0 hr 8 min 33 sec) 
OFFSET CHANGED FROM 6 TO 6
OFFSET CHANGED FROM 6 TO 5
OFFSET CHANGED FROM 5 TO 3
OFFSET CHANGED FROM 3 TO 2
Heartbeat CPU 0 instructions: 250000002 cycles: 127136445 heartbeat IPC: 1.87163 cumulative IPC: 1.84697 (Simulation time: 0 hr 8 min 54 sec) 
OFFSET CHANGED FROM 2 TO 2
OFFSET CHANGED FROM 2 TO 3
OFFSET CHANGED FROM 3 TO 3
OFFSET CHANGED FROM 3 TO 3
OFFSET CHANGED FROM 3 TO 8
OFFSET CHANGED FROM 8 TO 7
Heartbeat CPU 0 instructions: 260000002 cycles: 132672631 heartbeat IPC: 1.8063 cumulative IPC: 1.84499 (Simulation time: 0 hr 9 min 15 sec) 
OFFSET CHANGED FROM 7 TO 6
OFFSET CHANGED FROM 6 TO 5
OFFSET CHANGED FROM 5 TO 6
OFFSET CHANGED FROM 6 TO 4
Heartbeat CPU 0 instructions: 270000000 cycles: 137884818 heartbeat IPC: 1.91858 cumulative IPC: 1.84822 (Simulation time: 0 hr 9 min 33 sec) 
OFFSET CHANGED FROM 4 TO 2
OFFSET CHANGED FROM 2 TO 8
OFFSET CHANGED FROM 8 TO 8
OFFSET CHANGED FROM 8 TO 5
OFFSET CHANGED FROM 5 TO 4
OFFSET CHANGED FROM 4 TO 3
OFFSET CHANGED FROM 3 TO 4
Heartbeat CPU 0 instructions: 280000001 cycles: 143347578 heartbeat IPC: 1.83058 cumulative IPC: 1.84744 (Simulation time: 0 hr 9 min 54 sec) 
OFFSET CHANGED FROM 4 TO 7
OFFSET CHANGED FROM 7 TO 4
OFFSET CHANGED FROM 4 TO 4
OFFSET CHANGED FROM 4 TO 3
Heartbeat CPU 0 instructions: 290000001 cycles: 148643125 heartbeat IPC: 1.88838 cumulative IPC: 1.84911 (Simulation time: 0 hr 10 min 12 sec) 
OFFSET CHANGED FROM 3 TO 9
OFFSET CHANGED FROM 9 TO 3
OFFSET CHANGED FROM 3 TO 2
OFFSET CHANGED FROM 2 TO 8
Heartbeat CPU 0 instructions: 300000000 cycles: 153996988 heartbeat IPC: 1.86781 cumulative IPC: 1.84985 (Simulation time: 0 hr 10 min 34 sec) 
Finished CPU 0 instructions: 250000000 cycles: 135145850 cumulative IPC: 1.84985 (Simulation time: 0 hr 10 min 34 sec) 

ChampSim completed all CPUs

Region of Interest Statistics

CPU 0 cumulative IPC: 1.84985 instructions: 250000000 cycles: 135145850
L1D TOTAL     ACCESS:   53239444  HIT:   52782739  MISS:     456705
L1D LOAD      ACCESS:   43860807  HIT:   43427764  MISS:     433043
L1D RFO       ACCESS:    9378637  HIT:    9354975  MISS:      23662
L1D PREFETCH  ACCESS:          0  HIT:          0  MISS:          0
L1D WRITEBACK ACCESS:          0  HIT:          0  MISS:          0
L1D PREFETCH  REQUESTED:          0  ISSUED:          0  USEFUL:          0  USELESS:          0
L1D AVERAGE MISS LATENCY: 16.8111 cycles
L1I TOTAL     ACCESS:   40440859  HIT:   40440859  MISS:          0
L1I LOAD      ACCESS:   40440859  HIT:   40440859  MISS:          0
L1I RFO       ACCESS:          0  HIT:          0  MISS:          0
L1I PREFETCH  ACCESS:          0  HIT:          0  MISS:          0
L1I WRITEBACK ACCESS:          0  HIT:          0  MISS:          0
L1I PREFETCH  REQUESTED:          0  ISSUED:          0  USEFUL:          0  USELESS:          0
L1I AVERAGE MISS LATENCY: -nan cycles
L2C TOTAL     ACCESS:     950302  HIT:     915665  MISS:      34637
L2C LOAD      ACCESS:     433020  HIT:     423021  MISS:       9999
L2C RFO       ACCESS:      23657  HIT:      23615  MISS:         42
L2C PREFETCH  ACCESS:     412197  HIT:     387601  MISS:      24596
L2C WRITEBACK ACCESS:      81428  HIT:      81428  MISS:          0
L2C PREFETCH  REQUESTED:     415159  ISSUED:     415159  USEFUL:      19808  USELESS:       4773
L2C AVERAGE MISS LATENCY: 79.8972 cycles
LLC TOTAL     ACCESS:      40871  HIT:      22459  MISS:      18412
LLC LOAD      ACCESS:       7422  HIT:       3122  MISS:       4300
LLC RFO       ACCESS:         42  HIT:         41  MISS:          1
LLC PREFETCH  ACCESS:      27173  HIT:      13062  MISS:      14111
LLC WRITEBACK ACCESS:       6234  HIT:       6234  MISS:          0
LLC PREFETCH  REQUESTED:          0  ISSUED:          0  USEFUL:       1417  USELESS:        184
LLC AVERAGE MISS LATENCY: 102.115 cycles
Major fault: 0 Minor fault: 605
CPU 0 L1I next line prefetcher final stats
CPU 0 L2C best offset prefetcher final stats

DRAM Statistics
 CHANNEL 0
 RQ ROW_BUFFER_HIT:      13320  ROW_BUFFER_MISS:       5092
 DBUS_CONGESTED:       2751
 WQ ROW_BUFFER_HIT:          9  ROW_BUFFER_MISS:         51  FULL:          0

 AVG_CONGESTED_CYCLE: 3

CPU 0 Branch Prediction Accuracy: 96.1624% MPKI: 2.24635 Average ROB Occupancy at Mispredict: 36.466

Branch types
NOT_BRANCH: 235366014 94.1464%
BRANCH_DIRECT_JUMP: 834382 0.333753%
BRANCH_INDIRECT: 0 0%
BRANCH_CONDITIONAL: 13798972 5.51959%
BRANCH_DIRECT_CALL: 264 0.0001056%
BRANCH_INDIRECT_CALL: 0 0%
BRANCH_RETURN: 264 0.0001056%
BRANCH_OTHER: 0 0%

