
*** ChampSim Multicore Out-of-Order Simulator ***

Warmup Instructions: 50000000
Simulation Instructions: 250000000
Number of CPUs: 1
LLC sets: 2048
LLC ways: 16
Off-chip DRAM Size: 4096 MB Channels: 1 Width: 64-bit Data Rate: 3200 MT/s

CPU 0 runs /home/wezelis2/ECE511_Project/ChampSim/dpc3_traces/464.h264ref-64B.champsimtrace.xz
CPU 0 Bimodal branch predictor
CPU 0 L1I next line prefetcher
INIT BEST RECENT REQUEST TABLE MODULE
INIT DELAY QUEUE MODULE
INIT PREFETCH THROTTLE MODULE
INIT OFFSET SCORE MODULE
INIT BEST OFFSET PREFETCHER
OFFSET CHANGED FROM 1 TO 4
OFFSET CHANGED FROM 4 TO 2
OFFSET CHANGED FROM 2 TO 1
OFFSET CHANGED FROM 1 TO 1
OFFSET CHANGED FROM 1 TO 1
OFFSET CHANGED FROM 1 TO 1
OFFSET CHANGED FROM 1 TO 1
OFFSET CHANGED FROM 1 TO 3
OFFSET CHANGED FROM 3 TO 5
OFFSET CHANGED FROM 5 TO 5
OFFSET CHANGED FROM 5 TO 1
OFFSET CHANGED FROM 1 TO 1
OFFSET CHANGED FROM 1 TO 1
OFFSET CHANGED FROM 1 TO 3
OFFSET CHANGED FROM 3 TO 4
OFFSET CHANGED FROM 4 TO 1
OFFSET CHANGED FROM 1 TO 1
OFFSET CHANGED FROM 1 TO 1
Heartbeat CPU 0 instructions: 10000003 cycles: 3790113 heartbeat IPC: 2.63844 cumulative IPC: 2.63844 (Simulation time: 0 hr 0 min 25 sec) 
OFFSET CHANGED FROM 1 TO 1
OFFSET CHANGED FROM 1 TO 1
OFFSET CHANGED FROM 1 TO 1
OFFSET CHANGED FROM 1 TO 1
OFFSET CHANGED FROM 1 TO 1
OFFSET CHANGED FROM 1 TO 3
OFFSET CHANGED FROM 3 TO 13
OFFSET CHANGED FROM 13 TO 9
Heartbeat CPU 0 instructions: 20000002 cycles: 7708719 heartbeat IPC: 2.55193 cumulative IPC: 2.59447 (Simulation time: 0 hr 0 min 51 sec) 
OFFSET CHANGED FROM 9 TO 3
OFFSET CHANGED FROM 3 TO 2
OFFSET CHANGED FROM 2 TO 2
OFFSET CHANGED FROM 2 TO 2
OFFSET CHANGED FROM 2 TO 6
Heartbeat CPU 0 instructions: 30000001 cycles: 11886177 heartbeat IPC: 2.3938 cumulative IPC: 2.52394 (Simulation time: 0 hr 1 min 18 sec) 
OFFSET CHANGED FROM 6 TO 6
OFFSET CHANGED FROM 6 TO 3
OFFSET CHANGED FROM 3 TO 3
OFFSET CHANGED FROM 3 TO 3
OFFSET CHANGED FROM 3 TO 2
OFFSET CHANGED FROM 2 TO 5
Heartbeat CPU 0 instructions: 40000002 cycles: 16069884 heartbeat IPC: 2.39022 cumulative IPC: 2.48913 (Simulation time: 0 hr 1 min 44 sec) 
OFFSET CHANGED FROM 5 TO 4
OFFSET CHANGED FROM 4 TO 2
OFFSET CHANGED FROM 2 TO 3
OFFSET CHANGED FROM 3 TO 5
OFFSET CHANGED FROM 5 TO 6
Heartbeat CPU 0 instructions: 50000000 cycles: 20251527 heartbeat IPC: 2.3914 cumulative IPC: 2.46895 (Simulation time: 0 hr 2 min 11 sec) 

Warmup complete CPU 0 instructions: 50000004 cycles: 20251528 (Simulation time: 0 hr 2 min 11 sec) 

OFFSET CHANGED FROM 6 TO 2
OFFSET CHANGED FROM 2 TO 5
OFFSET CHANGED FROM 5 TO 1
OFFSET CHANGED FROM 1 TO 1
OFFSET CHANGED FROM 1 TO 1
OFFSET CHANGED FROM 1 TO 1
OFFSET CHANGED FROM 1 TO 1
OFFSET CHANGED FROM 1 TO 1
OFFSET CHANGED FROM 1 TO 3
OFFSET CHANGED FROM 3 TO 5
OFFSET CHANGED FROM 5 TO 1
OFFSET CHANGED FROM 1 TO 1
OFFSET CHANGED FROM 1 TO 2
Heartbeat CPU 0 instructions: 60000000 cycles: 27899360 heartbeat IPC: 1.30756 cumulative IPC: 1.30756 (Simulation time: 0 hr 2 min 33 sec) 
OFFSET CHANGED FROM 2 TO 5
OFFSET CHANGED FROM 5 TO 1
OFFSET CHANGED FROM 1 TO 1
OFFSET CHANGED FROM 1 TO 1
OFFSET CHANGED FROM 1 TO 1
OFFSET CHANGED FROM 1 TO 1
OFFSET CHANGED FROM 1 TO 2
OFFSET CHANGED FROM 2 TO 1
OFFSET CHANGED FROM 1 TO 1
OFFSET CHANGED FROM 1 TO 2
OFFSET CHANGED FROM 2 TO 2
OFFSET CHANGED FROM 2 TO 1
OFFSET CHANGED FROM 1 TO 5
Heartbeat CPU 0 instructions: 70000001 cycles: 36739396 heartbeat IPC: 1.13122 cumulative IPC: 1.21301 (Simulation time: 0 hr 2 min 55 sec) 
OFFSET CHANGED FROM 5 TO 2
OFFSET CHANGED FROM 2 TO 2
OFFSET CHANGED FROM 2 TO 1
OFFSET CHANGED FROM 1 TO 2
OFFSET CHANGED FROM 2 TO 1
OFFSET CHANGED FROM 1 TO 1
OFFSET CHANGED FROM 1 TO 1
OFFSET CHANGED FROM 1 TO 1
OFFSET CHANGED FROM 1 TO 2
Heartbeat CPU 0 instructions: 80000003 cycles: 43927171 heartbeat IPC: 1.39125 cumulative IPC: 1.26713 (Simulation time: 0 hr 3 min 21 sec) 
OFFSET CHANGED FROM 2 TO 1
OFFSET CHANGED FROM 1 TO 1
OFFSET CHANGED FROM 1 TO 2
OFFSET CHANGED FROM 2 TO 3
OFFSET CHANGED FROM 3 TO 3
OFFSET CHANGED FROM 3 TO 3
OFFSET CHANGED FROM 3 TO 1
OFFSET CHANGED FROM 1 TO 9
Heartbeat CPU 0 instructions: 90000003 cycles: 51123460 heartbeat IPC: 1.38961 cumulative IPC: 1.29568 (Simulation time: 0 hr 3 min 47 sec) 
OFFSET CHANGED FROM 9 TO 2
OFFSET CHANGED FROM 2 TO 4
OFFSET CHANGED FROM 4 TO 1
OFFSET CHANGED FROM 1 TO 1
OFFSET CHANGED FROM 1 TO 1
OFFSET CHANGED FROM 1 TO 1
OFFSET CHANGED FROM 1 TO 1
OFFSET CHANGED FROM 1 TO 1
OFFSET CHANGED FROM 1 TO 2
OFFSET CHANGED FROM 2 TO 10
OFFSET CHANGED FROM 10 TO 1
OFFSET CHANGED FROM 1 TO 1
OFFSET CHANGED FROM 1 TO 1
OFFSET CHANGED FROM 1 TO 2
OFFSET CHANGED FROM 2 TO 1
OFFSET CHANGED FROM 1 TO 1
OFFSET CHANGED FROM 1 TO 9
OFFSET CHANGED FROM 9 TO 8
Heartbeat CPU 0 instructions: 100000001 cycles: 59468019 heartbeat IPC: 1.19839 cumulative IPC: 1.27497 (Simulation time: 0 hr 4 min 10 sec) 
OFFSET CHANGED FROM 8 TO 1
OFFSET CHANGED FROM 1 TO 1
OFFSET CHANGED FROM 1 TO 4
OFFSET CHANGED FROM 4 TO 1
OFFSET CHANGED FROM 1 TO 10
OFFSET CHANGED FROM 10 TO 2
OFFSET CHANGED FROM 2 TO 4
Heartbeat CPU 0 instructions: 110000000 cycles: 68578696 heartbeat IPC: 1.09761 cumulative IPC: 1.24154 (Simulation time: 0 hr 4 min 32 sec) 
OFFSET CHANGED FROM 4 TO 4
OFFSET CHANGED FROM 4 TO 2
OFFSET CHANGED FROM 2 TO 2
OFFSET CHANGED FROM 2 TO 2
OFFSET CHANGED FROM 2 TO 5
OFFSET CHANGED FROM 5 TO 5
OFFSET CHANGED FROM 5 TO 3
OFFSET CHANGED FROM 3 TO 2
OFFSET CHANGED FROM 2 TO 3
Heartbeat CPU 0 instructions: 120000001 cycles: 75822722 heartbeat IPC: 1.38045 cumulative IPC: 1.25965 (Simulation time: 0 hr 4 min 56 sec) 
OFFSET CHANGED FROM 3 TO 2
OFFSET CHANGED FROM 2 TO 1
OFFSET CHANGED FROM 1 TO 1
OFFSET CHANGED FROM 1 TO 2
OFFSET CHANGED FROM 2 TO 1
OFFSET CHANGED FROM 1 TO 3
OFFSET CHANGED FROM 3 TO 2
OFFSET CHANGED FROM 2 TO 3
OFFSET CHANGED FROM 3 TO 1
OFFSET CHANGED FROM 1 TO 1
Heartbeat CPU 0 instructions: 130000001 cycles: 83049834 heartbeat IPC: 1.38368 cumulative IPC: 1.27392 (Simulation time: 0 hr 5 min 22 sec) 
OFFSET CHANGED FROM 1 TO 2
OFFSET CHANGED FROM 2 TO 1
OFFSET CHANGED FROM 1 TO 1
OFFSET CHANGED FROM 1 TO 1
OFFSET CHANGED FROM 1 TO 1
OFFSET CHANGED FROM 1 TO 1
OFFSET CHANGED FROM 1 TO 7
OFFSET CHANGED FROM 7 TO 4
OFFSET CHANGED FROM 4 TO 9
OFFSET CHANGED FROM 9 TO 1
OFFSET CHANGED FROM 1 TO 1
OFFSET CHANGED FROM 1 TO 1
OFFSET CHANGED FROM 1 TO 1
OFFSET CHANGED FROM 1 TO 5
OFFSET CHANGED FROM 5 TO 1
Heartbeat CPU 0 instructions: 140000000 cycles: 91632622 heartbeat IPC: 1.16512 cumulative IPC: 1.26084 (Simulation time: 0 hr 5 min 45 sec) 
OFFSET CHANGED FROM 1 TO 3
OFFSET CHANGED FROM 3 TO 2
OFFSET CHANGED FROM 2 TO 2
OFFSET CHANGED FROM 2 TO 1
OFFSET CHANGED FROM 1 TO 2
OFFSET CHANGED FROM 2 TO 1
OFFSET CHANGED FROM 1 TO 7
OFFSET CHANGED FROM 7 TO 2
OFFSET CHANGED FROM 2 TO 7
Heartbeat CPU 0 instructions: 150000000 cycles: 100751129 heartbeat IPC: 1.09667 cumulative IPC: 1.24224 (Simulation time: 0 hr 6 min 7 sec) 
OFFSET CHANGED FROM 7 TO 5
OFFSET CHANGED FROM 5 TO 1
OFFSET CHANGED FROM 1 TO 1
OFFSET CHANGED FROM 1 TO 1
OFFSET CHANGED FROM 1 TO 2
OFFSET CHANGED FROM 2 TO 1
OFFSET CHANGED FROM 1 TO 1
OFFSET CHANGED FROM 1 TO 1
OFFSET CHANGED FROM 1 TO 1
Heartbeat CPU 0 instructions: 160000002 cycles: 107953082 heartbeat IPC: 1.38851 cumulative IPC: 1.25425 (Simulation time: 0 hr 6 min 32 sec) 
OFFSET CHANGED FROM 1 TO 1
OFFSET CHANGED FROM 1 TO 2
OFFSET CHANGED FROM 2 TO 1
OFFSET CHANGED FROM 1 TO 2
OFFSET CHANGED FROM 2 TO 2
OFFSET CHANGED FROM 2 TO 1
OFFSET CHANGED FROM 1 TO 3
OFFSET CHANGED FROM 3 TO 1
OFFSET CHANGED FROM 1 TO 2
Heartbeat CPU 0 instructions: 170000000 cycles: 115168198 heartbeat IPC: 1.38598 cumulative IPC: 1.26427 (Simulation time: 0 hr 6 min 58 sec) 
OFFSET CHANGED FROM 2 TO 1
OFFSET CHANGED FROM 1 TO 1
OFFSET CHANGED FROM 1 TO 1
OFFSET CHANGED FROM 1 TO 1
OFFSET CHANGED FROM 1 TO 1
OFFSET CHANGED FROM 1 TO 1
OFFSET CHANGED FROM 1 TO 1
OFFSET CHANGED FROM 1 TO 3
OFFSET CHANGED FROM 3 TO 8
OFFSET CHANGED FROM 8 TO 2
OFFSET CHANGED FROM 2 TO 1
OFFSET CHANGED FROM 1 TO 4
OFFSET CHANGED FROM 4 TO 1
OFFSET CHANGED FROM 1 TO 8
OFFSET CHANGED FROM 8 TO 1
OFFSET CHANGED FROM 1 TO 1
Heartbeat CPU 0 instructions: 180000000 cycles: 123764765 heartbeat IPC: 1.16326 cumulative IPC: 1.25588 (Simulation time: 0 hr 7 min 20 sec) 
OFFSET CHANGED FROM 1 TO 1
OFFSET CHANGED FROM 1 TO 13
OFFSET CHANGED FROM 13 TO 13
OFFSET CHANGED FROM 13 TO 3
OFFSET CHANGED FROM 3 TO 3
OFFSET CHANGED FROM 3 TO 3
OFFSET CHANGED FROM 3 TO 1
OFFSET CHANGED FROM 1 TO 2
Heartbeat CPU 0 instructions: 190000000 cycles: 133276366 heartbeat IPC: 1.05135 cumulative IPC: 1.23867 (Simulation time: 0 hr 7 min 41 sec) 
OFFSET CHANGED FROM 2 TO 7
OFFSET CHANGED FROM 7 TO 2
OFFSET CHANGED FROM 2 TO 1
OFFSET CHANGED FROM 1 TO 2
OFFSET CHANGED FROM 2 TO 1
OFFSET CHANGED FROM 1 TO 1
OFFSET CHANGED FROM 1 TO 2
OFFSET CHANGED FROM 2 TO 1
OFFSET CHANGED FROM 1 TO 1
OFFSET CHANGED FROM 1 TO 5
Heartbeat CPU 0 instructions: 200000001 cycles: 140478825 heartbeat IPC: 1.38841 cumulative IPC: 1.24764 (Simulation time: 0 hr 8 min 7 sec) 
OFFSET CHANGED FROM 5 TO 1
OFFSET CHANGED FROM 1 TO 1
OFFSET CHANGED FROM 1 TO 2
OFFSET CHANGED FROM 2 TO 2
OFFSET CHANGED FROM 2 TO 3
OFFSET CHANGED FROM 3 TO 2
OFFSET CHANGED FROM 2 TO 1
OFFSET CHANGED FROM 1 TO 4
Heartbeat CPU 0 instructions: 210000003 cycles: 147731759 heartbeat IPC: 1.37875 cumulative IPC: 1.2551 (Simulation time: 0 hr 8 min 33 sec) 
OFFSET CHANGED FROM 4 TO 1
OFFSET CHANGED FROM 1 TO 3
OFFSET CHANGED FROM 3 TO 2
OFFSET CHANGED FROM 2 TO 1
OFFSET CHANGED FROM 1 TO 3
OFFSET CHANGED FROM 3 TO 1
OFFSET CHANGED FROM 1 TO 2
OFFSET CHANGED FROM 2 TO 1
OFFSET CHANGED FROM 1 TO 4
OFFSET CHANGED FROM 4 TO 2
OFFSET CHANGED FROM 2 TO 2
OFFSET CHANGED FROM 2 TO 1
OFFSET CHANGED FROM 1 TO 1
OFFSET CHANGED FROM 1 TO 7
Heartbeat CPU 0 instructions: 220000000 cycles: 156473041 heartbeat IPC: 1.144 cumulative IPC: 1.24797 (Simulation time: 0 hr 8 min 56 sec) 
OFFSET CHANGED FROM 7 TO 2
OFFSET CHANGED FROM 2 TO 1
OFFSET CHANGED FROM 1 TO 4
OFFSET CHANGED FROM 4 TO 1
OFFSET CHANGED FROM 1 TO 3
OFFSET CHANGED FROM 3 TO 1
OFFSET CHANGED FROM 1 TO 4
OFFSET CHANGED FROM 4 TO 1
OFFSET CHANGED FROM 1 TO 6
OFFSET CHANGED FROM 6 TO 1
OFFSET CHANGED FROM 1 TO 2
Heartbeat CPU 0 instructions: 230000002 cycles: 166073999 heartbeat IPC: 1.04156 cumulative IPC: 1.23438 (Simulation time: 0 hr 9 min 19 sec) 
OFFSET CHANGED FROM 2 TO 3
OFFSET CHANGED FROM 3 TO 3
OFFSET CHANGED FROM 3 TO 1
OFFSET CHANGED FROM 1 TO 2
OFFSET CHANGED FROM 2 TO 1
OFFSET CHANGED FROM 1 TO 2
OFFSET CHANGED FROM 2 TO 1
OFFSET CHANGED FROM 1 TO 2
Heartbeat CPU 0 instructions: 240000002 cycles: 173584999 heartbeat IPC: 1.33138 cumulative IPC: 1.23913 (Simulation time: 0 hr 9 min 44 sec) 
OFFSET CHANGED FROM 2 TO 1
OFFSET CHANGED FROM 1 TO 3
OFFSET CHANGED FROM 3 TO 1
OFFSET CHANGED FROM 1 TO 2
OFFSET CHANGED FROM 2 TO 1
OFFSET CHANGED FROM 1 TO 4
OFFSET CHANGED FROM 4 TO 1
OFFSET CHANGED FROM 1 TO 2
Heartbeat CPU 0 instructions: 250000003 cycles: 180791349 heartbeat IPC: 1.38767 cumulative IPC: 1.2458 (Simulation time: 0 hr 10 min 8 sec) 
OFFSET CHANGED FROM 2 TO 1
OFFSET CHANGED FROM 1 TO 2
OFFSET CHANGED FROM 2 TO 3
OFFSET CHANGED FROM 3 TO 3
OFFSET CHANGED FROM 3 TO 1
OFFSET CHANGED FROM 1 TO 1
OFFSET CHANGED FROM 1 TO 1
OFFSET CHANGED FROM 1 TO 1
OFFSET CHANGED FROM 1 TO 1
OFFSET CHANGED FROM 1 TO 1
OFFSET CHANGED FROM 1 TO 4
OFFSET CHANGED FROM 4 TO 1
Heartbeat CPU 0 instructions: 260000000 cycles: 189011834 heartbeat IPC: 1.21647 cumulative IPC: 1.24437 (Simulation time: 0 hr 10 min 33 sec) 
OFFSET CHANGED FROM 1 TO 1
OFFSET CHANGED FROM 1 TO 1
OFFSET CHANGED FROM 1 TO 3
OFFSET CHANGED FROM 3 TO 1
OFFSET CHANGED FROM 1 TO 1
OFFSET CHANGED FROM 1 TO 2
OFFSET CHANGED FROM 2 TO 3
OFFSET CHANGED FROM 3 TO 3
OFFSET CHANGED FROM 3 TO 4
OFFSET CHANGED FROM 4 TO 1
OFFSET CHANGED FROM 1 TO 1
OFFSET CHANGED FROM 1 TO 5
OFFSET CHANGED FROM 5 TO 13
PREFETCHING INTO L2 w/ PREFETCH SCORE 31 (MSHR OCC = 28)
PREFETCHING INTO L2 w/ PREFETCH SCORE 31 (MSHR OCC = 28)
OFFSET CHANGED FROM 13 TO 5
Heartbeat CPU 0 instructions: 270000002 cycles: 198546198 heartbeat IPC: 1.04884 cumulative IPC: 1.23391 (Simulation time: 0 hr 10 min 54 sec) 
OFFSET CHANGED FROM 5 TO 6
OFFSET CHANGED FROM 6 TO 4
OFFSET CHANGED FROM 4 TO 5
OFFSET CHANGED FROM 5 TO 3
OFFSET CHANGED FROM 3 TO 2
OFFSET CHANGED FROM 2 TO 4
Heartbeat CPU 0 instructions: 280000002 cycles: 206446143 heartbeat IPC: 1.26583 cumulative IPC: 1.23527 (Simulation time: 0 hr 11 min 20 sec) 
OFFSET CHANGED FROM 4 TO 4
OFFSET CHANGED FROM 4 TO 3
OFFSET CHANGED FROM 3 TO 2
OFFSET CHANGED FROM 2 TO 1
OFFSET CHANGED FROM 1 TO 1
OFFSET CHANGED FROM 1 TO 1
OFFSET CHANGED FROM 1 TO 1
OFFSET CHANGED FROM 1 TO 1
OFFSET CHANGED FROM 1 TO 1
OFFSET CHANGED FROM 1 TO 3
Heartbeat CPU 0 instructions: 290000001 cycles: 213663889 heartbeat IPC: 1.38547 cumulative IPC: 1.24087 (Simulation time: 0 hr 11 min 46 sec) 
OFFSET CHANGED FROM 3 TO 1
OFFSET CHANGED FROM 1 TO 1
OFFSET CHANGED FROM 1 TO 1
OFFSET CHANGED FROM 1 TO 1
OFFSET CHANGED FROM 1 TO 1
OFFSET CHANGED FROM 1 TO 1
OFFSET CHANGED FROM 1 TO 1
OFFSET CHANGED FROM 1 TO 1
OFFSET CHANGED FROM 1 TO 2
OFFSET CHANGED FROM 2 TO 1
Heartbeat CPU 0 instructions: 300000000 cycles: 221616873 heartbeat IPC: 1.25739 cumulative IPC: 1.24152 (Simulation time: 0 hr 12 min 11 sec) 
Finished CPU 0 instructions: 250000002 cycles: 201365348 cumulative IPC: 1.24152 (Simulation time: 0 hr 12 min 11 sec) 

ChampSim completed all CPUs

Region of Interest Statistics

CPU 0 cumulative IPC: 1.24152 instructions: 250000002 cycles: 201365348
L1D TOTAL     ACCESS:   73277733  HIT:   72558427  MISS:     719306
L1D LOAD      ACCESS:   56114526  HIT:   55591272  MISS:     523254
L1D RFO       ACCESS:   17163207  HIT:   16967155  MISS:     196052
L1D PREFETCH  ACCESS:          0  HIT:          0  MISS:          0
L1D WRITEBACK ACCESS:          0  HIT:          0  MISS:          0
L1D PREFETCH  REQUESTED:          0  ISSUED:          0  USEFUL:          0  USELESS:          0
L1D AVERAGE MISS LATENCY: 54.6512 cycles
L1I TOTAL     ACCESS:   43174096  HIT:   43152504  MISS:      21592
L1I LOAD      ACCESS:   43163882  HIT:   43149279  MISS:      14603
L1I RFO       ACCESS:          0  HIT:          0  MISS:          0
L1I PREFETCH  ACCESS:      10214  HIT:       3225  MISS:       6989
L1I WRITEBACK ACCESS:          0  HIT:          0  MISS:          0
L1I PREFETCH  REQUESTED:      19626  ISSUED:      19626  USEFUL:       5125  USELESS:       1862
L1I AVERAGE MISS LATENCY: 55.256 cycles
L2C TOTAL     ACCESS:    1429267  HIT:     935822  MISS:     493445
L2C LOAD      ACCESS:     535040  HIT:     444345  MISS:      90695
L2C RFO       ACCESS:     196050  HIT:      14708  MISS:     181342
L2C PREFETCH  ACCESS:     496775  HIT:     275667  MISS:     221108
L2C WRITEBACK ACCESS:     201402  HIT:     201102  MISS:        300
L2C PREFETCH  REQUESTED:     524591  ISSUED:     524591  USEFUL:     153298  USELESS:      67512
L2C AVERAGE MISS LATENCY: 99.8257 cycles
LLC TOTAL     ACCESS:     684807  HIT:     451109  MISS:     233698
LLC LOAD      ACCESS:      58753  HIT:      31605  MISS:      27148
LLC RFO       ACCESS:     181048  HIT:      89976  MISS:      91072
LLC PREFETCH  ACCESS:     253345  HIT:     138416  MISS:     114929
LLC WRITEBACK ACCESS:     191661  HIT:     191112  MISS:        549
LLC PREFETCH  REQUESTED:          0  ISSUED:          0  USEFUL:      50406  USELESS:      63723
LLC AVERAGE MISS LATENCY: 160.293 cycles
Major fault: 0 Minor fault: 1545
CPU 0 L1I next line prefetcher final stats
CPU 0 L2C best offset prefetcher final stats

DRAM Statistics
 CHANNEL 0
 RQ ROW_BUFFER_HIT:      40103  ROW_BUFFER_MISS:     193040
 DBUS_CONGESTED:      75658
 WQ ROW_BUFFER_HIT:      31503  ROW_BUFFER_MISS:     110821  FULL:          0

 AVG_CONGESTED_CYCLE: 6

CPU 0 Branch Prediction Accuracy: 95.1795% MPKI: 4.31204 Average ROB Occupancy at Mispredict: 87.8214

Branch types
NOT_BRANCH: 227636507 91.0546%
BRANCH_DIRECT_JUMP: 1314835 0.525934%
BRANCH_INDIRECT: 4198 0.0016792%
BRANCH_CONDITIONAL: 14812811 5.92512%
BRANCH_DIRECT_CALL: 3113542 1.24542%
BRANCH_INDIRECT_CALL: 2114 0.0008456%
BRANCH_RETURN: 3115657 1.24626%
BRANCH_OTHER: 0 0%

