
*** ChampSim Multicore Out-of-Order Simulator ***

Warmup Instructions: 50000000
Simulation Instructions: 250000000
Number of CPUs: 1
LLC sets: 2048
LLC ways: 16
Off-chip DRAM Size: 4096 MB Channels: 1 Width: 64-bit Data Rate: 3200 MT/s

CPU 0 runs /home/wezelis2/ECE511_Project/ChampSim/dpc3_traces/625.x264_s-20B.champsimtrace.xz
CPU 0 Bimodal branch predictor
CPU 0 L1I next line prefetcher
INIT BEST RECENT REQUEST TABLE MODULE
INIT DELAY QUEUE MODULE
INIT PREFETCH THROTTLE MODULE
INIT OFFSET SCORE MODULE
INIT BEST OFFSET PREFETCHER
OFFSET CHANGED FROM 1 TO 1
OFFSET CHANGED FROM 1 TO 1
OFFSET CHANGED FROM 1 TO 11
OFFSET CHANGED FROM 11 TO 1
OFFSET CHANGED FROM 1 TO 1
OFFSET CHANGED FROM 1 TO 1
OFFSET CHANGED FROM 1 TO 1
OFFSET CHANGED FROM 1 TO 1
OFFSET CHANGED FROM 1 TO 1
OFFSET CHANGED FROM 1 TO 1
OFFSET CHANGED FROM 1 TO 1
OFFSET CHANGED FROM 1 TO 1
OFFSET CHANGED FROM 1 TO 1
OFFSET CHANGED FROM 1 TO 1
OFFSET CHANGED FROM 1 TO 1
OFFSET CHANGED FROM 1 TO 1
OFFSET CHANGED FROM 1 TO 1
Heartbeat CPU 0 instructions: 10000002 cycles: 3226641 heartbeat IPC: 3.0992 cumulative IPC: 3.0992 (Simulation time: 0 hr 0 min 23 sec) 
OFFSET CHANGED FROM 1 TO 1
OFFSET CHANGED FROM 1 TO 1
OFFSET CHANGED FROM 1 TO 1
OFFSET CHANGED FROM 1 TO 1
OFFSET CHANGED FROM 1 TO 1
OFFSET CHANGED FROM 1 TO 1
OFFSET CHANGED FROM 1 TO 1
OFFSET CHANGED FROM 1 TO 1
OFFSET CHANGED FROM 1 TO 1
OFFSET CHANGED FROM 1 TO 1
Heartbeat CPU 0 instructions: 20000002 cycles: 6562660 heartbeat IPC: 2.99758 cumulative IPC: 3.04754 (Simulation time: 0 hr 0 min 47 sec) 
OFFSET CHANGED FROM 1 TO 1
OFFSET CHANGED FROM 1 TO 1
OFFSET CHANGED FROM 1 TO 11
OFFSET CHANGED FROM 11 TO 1
OFFSET CHANGED FROM 1 TO 11
CHANGING MSHR THRESHOLD FROM 28 TO MIN 2
CHANGING MSHR THRESHOLD FROM 2 TO 3
CHANGING MSHR THRESHOLD FROM 3 TO 5
CHANGING MSHR THRESHOLD FROM 5 TO 6
CHANGING MSHR THRESHOLD FROM 6 TO 8
CHANGING MSHR THRESHOLD FROM 8 TO 10
CHANGING MSHR THRESHOLD FROM 10 TO 11
CHANGING MSHR THRESHOLD FROM 11 TO 13
CHANGING MSHR THRESHOLD FROM 13 TO 15
CHANGING MSHR THRESHOLD FROM 15 TO 16
CHANGING MSHR THRESHOLD FROM 16 TO 18
CHANGING MSHR THRESHOLD FROM 18 TO 19
CHANGING MSHR THRESHOLD FROM 19 TO 21
CHANGING MSHR THRESHOLD FROM 21 TO 23
CHANGING MSHR THRESHOLD FROM 23 TO 24
CHANGING MSHR THRESHOLD FROM 24 TO 26
CHANGING MSHR THRESHOLD FROM 26 TO 28
CHANGING MSHR THRESHOLD FROM 28 TO 26
CHANGING MSHR THRESHOLD FROM 26 TO 24
CHANGING MSHR THRESHOLD FROM 24 TO 23
CHANGING MSHR THRESHOLD FROM 23 TO 21
CHANGING MSHR THRESHOLD FROM 21 TO 19
CHANGING MSHR THRESHOLD FROM 19 TO 18
CHANGING MSHR THRESHOLD FROM 18 TO 16
CHANGING MSHR THRESHOLD FROM 16 TO 15
CHANGING MSHR THRESHOLD FROM 15 TO 13
CHANGING MSHR THRESHOLD FROM 13 TO 11
CHANGING MSHR THRESHOLD FROM 11 TO 10
CHANGING MSHR THRESHOLD FROM 10 TO 8
CHANGING MSHR THRESHOLD FROM 8 TO 6
CHANGING MSHR THRESHOLD FROM 6 TO 5
CHANGING MSHR THRESHOLD FROM 5 TO 3
CHANGING MSHR THRESHOLD FROM 3 TO 2
CHANGING MSHR THRESHOLD FROM 2 TO 3
CHANGING MSHR THRESHOLD FROM 3 TO 5
CHANGING MSHR THRESHOLD FROM 5 TO 6
CHANGING MSHR THRESHOLD FROM 6 TO 8
CHANGING MSHR THRESHOLD FROM 8 TO 10
CHANGING MSHR THRESHOLD FROM 10 TO 11
CHANGING MSHR THRESHOLD FROM 11 TO 13
CHANGING MSHR THRESHOLD FROM 13 TO 15
CHANGING MSHR THRESHOLD FROM 15 TO 16
CHANGING MSHR THRESHOLD FROM 16 TO 18
CHANGING MSHR THRESHOLD FROM 18 TO 19
CHANGING MSHR THRESHOLD FROM 19 TO 21
CHANGING MSHR THRESHOLD FROM 21 TO 23
CHANGING MSHR THRESHOLD FROM 23 TO 24
CHANGING MSHR THRESHOLD FROM 24 TO 26
CHANGING MSHR THRESHOLD FROM 26 TO 28
OFFSET CHANGED FROM 11 TO 1
CHANGING MSHR THRESHOLD FROM 28 TO 26
CHANGING MSHR THRESHOLD FROM 26 TO 24
CHANGING MSHR THRESHOLD FROM 24 TO 26
CHANGING MSHR THRESHOLD FROM 26 TO 28
CHANGING MSHR THRESHOLD FROM 28 TO 26
CHANGING MSHR THRESHOLD FROM 26 TO 24
CHANGING MSHR THRESHOLD FROM 24 TO 23
CHANGING MSHR THRESHOLD FROM 23 TO 21
CHANGING MSHR THRESHOLD FROM 21 TO 19
CHANGING MSHR THRESHOLD FROM 19 TO 18
CHANGING MSHR THRESHOLD FROM 18 TO 16
CHANGING MSHR THRESHOLD FROM 16 TO 15
CHANGING MSHR THRESHOLD FROM 15 TO 13
CHANGING MSHR THRESHOLD FROM 13 TO 11
CHANGING MSHR THRESHOLD FROM 11 TO 10
CHANGING MSHR THRESHOLD FROM 10 TO 8
CHANGING MSHR THRESHOLD FROM 8 TO 6
CHANGING MSHR THRESHOLD FROM 6 TO 5
CHANGING MSHR THRESHOLD FROM 5 TO 3
CHANGING MSHR THRESHOLD FROM 3 TO 2
CHANGING MSHR THRESHOLD FROM 2 TO 3
CHANGING MSHR THRESHOLD FROM 3 TO 5
CHANGING MSHR THRESHOLD FROM 5 TO 6
CHANGING MSHR THRESHOLD FROM 6 TO 8
CHANGING MSHR THRESHOLD FROM 8 TO 10
CHANGING MSHR THRESHOLD FROM 10 TO 11
CHANGING MSHR THRESHOLD FROM 11 TO 13
CHANGING MSHR THRESHOLD FROM 13 TO 15
CHANGING MSHR THRESHOLD FROM 15 TO 16
CHANGING MSHR THRESHOLD FROM 16 TO 18
CHANGING MSHR THRESHOLD FROM 18 TO 19
CHANGING MSHR THRESHOLD FROM 19 TO 21
CHANGING MSHR THRESHOLD FROM 21 TO 23
CHANGING MSHR THRESHOLD FROM 23 TO 24
CHANGING MSHR THRESHOLD FROM 24 TO 26
CHANGING MSHR THRESHOLD FROM 26 TO 28
OFFSET CHANGED FROM 1 TO 1
OFFSET CHANGED FROM 1 TO 1
OFFSET CHANGED FROM 1 TO 1
OFFSET CHANGED FROM 1 TO 1
Heartbeat CPU 0 instructions: 30000001 cycles: 9903445 heartbeat IPC: 2.99331 cumulative IPC: 3.02925 (Simulation time: 0 hr 1 min 11 sec) 
OFFSET CHANGED FROM 1 TO 1
OFFSET CHANGED FROM 1 TO 1
OFFSET CHANGED FROM 1 TO 1
OFFSET CHANGED FROM 1 TO 1
CHANGING MSHR THRESHOLD FROM 28 TO 26
CHANGING MSHR THRESHOLD FROM 26 TO 24
CHANGING MSHR THRESHOLD FROM 24 TO 23
CHANGING MSHR THRESHOLD FROM 23 TO 21
CHANGING MSHR THRESHOLD FROM 21 TO 19
CHANGING MSHR THRESHOLD FROM 19 TO 18
CHANGING MSHR THRESHOLD FROM 18 TO 16
CHANGING MSHR THRESHOLD FROM 16 TO 15
CHANGING MSHR THRESHOLD FROM 15 TO 13
CHANGING MSHR THRESHOLD FROM 13 TO 11
CHANGING MSHR THRESHOLD FROM 11 TO 10
CHANGING MSHR THRESHOLD FROM 10 TO 11
CHANGING MSHR THRESHOLD FROM 11 TO 13
CHANGING MSHR THRESHOLD FROM 13 TO 15
CHANGING MSHR THRESHOLD FROM 15 TO 16
CHANGING MSHR THRESHOLD FROM 16 TO 18
CHANGING MSHR THRESHOLD FROM 18 TO 19
CHANGING MSHR THRESHOLD FROM 19 TO 21
CHANGING MSHR THRESHOLD FROM 21 TO 23
CHANGING MSHR THRESHOLD FROM 23 TO 24
CHANGING MSHR THRESHOLD FROM 24 TO 26
CHANGING MSHR THRESHOLD FROM 26 TO 28
OFFSET CHANGED FROM 1 TO 1
OFFSET CHANGED FROM 1 TO 1
OFFSET CHANGED FROM 1 TO 1
OFFSET CHANGED FROM 1 TO 1
OFFSET CHANGED FROM 1 TO 1
OFFSET CHANGED FROM 1 TO 1
Heartbeat CPU 0 instructions: 40000001 cycles: 13244227 heartbeat IPC: 2.99331 cumulative IPC: 3.02018 (Simulation time: 0 hr 1 min 36 sec) 
OFFSET CHANGED FROM 1 TO 1
OFFSET CHANGED FROM 1 TO 1
OFFSET CHANGED FROM 1 TO 1
OFFSET CHANGED FROM 1 TO 1
OFFSET CHANGED FROM 1 TO 1
OFFSET CHANGED FROM 1 TO 1
OFFSET CHANGED FROM 1 TO 1
OFFSET CHANGED FROM 1 TO 1
CHANGING MSHR THRESHOLD FROM 28 TO 19
CHANGING MSHR THRESHOLD FROM 19 TO 21
CHANGING MSHR THRESHOLD FROM 21 TO 23
CHANGING MSHR THRESHOLD FROM 23 TO 24
CHANGING MSHR THRESHOLD FROM 24 TO 26
CHANGING MSHR THRESHOLD FROM 26 TO 28
CHANGING MSHR THRESHOLD FROM 28 TO 26
CHANGING MSHR THRESHOLD FROM 26 TO 24
CHANGING MSHR THRESHOLD FROM 24 TO 23
CHANGING MSHR THRESHOLD FROM 23 TO 21
CHANGING MSHR THRESHOLD FROM 21 TO 19
CHANGING MSHR THRESHOLD FROM 19 TO 18
CHANGING MSHR THRESHOLD FROM 18 TO 16
CHANGING MSHR THRESHOLD FROM 16 TO 15
CHANGING MSHR THRESHOLD FROM 15 TO 13
CHANGING MSHR THRESHOLD FROM 13 TO 11
CHANGING MSHR THRESHOLD FROM 11 TO 10
CHANGING MSHR THRESHOLD FROM 10 TO 8
CHANGING MSHR THRESHOLD FROM 8 TO 6
CHANGING MSHR THRESHOLD FROM 6 TO 5
CHANGING MSHR THRESHOLD FROM 5 TO 6
CHANGING MSHR THRESHOLD FROM 6 TO 8
CHANGING MSHR THRESHOLD FROM 8 TO 10
CHANGING MSHR THRESHOLD FROM 10 TO 11
CHANGING MSHR THRESHOLD FROM 11 TO 13
CHANGING MSHR THRESHOLD FROM 13 TO 15
CHANGING MSHR THRESHOLD FROM 15 TO 16
CHANGING MSHR THRESHOLD FROM 16 TO 18
CHANGING MSHR THRESHOLD FROM 18 TO 19
CHANGING MSHR THRESHOLD FROM 19 TO 21
CHANGING MSHR THRESHOLD FROM 21 TO 23
CHANGING MSHR THRESHOLD FROM 23 TO 24
CHANGING MSHR THRESHOLD FROM 24 TO 26
CHANGING MSHR THRESHOLD FROM 26 TO 28
OFFSET CHANGED FROM 1 TO 1
CHANGING MSHR THRESHOLD FROM 28 TO 26
CHANGING MSHR THRESHOLD FROM 26 TO 24
CHANGING MSHR THRESHOLD FROM 24 TO 23
CHANGING MSHR THRESHOLD FROM 23 TO 21
CHANGING MSHR THRESHOLD FROM 21 TO 19
CHANGING MSHR THRESHOLD FROM 19 TO 18
CHANGING MSHR THRESHOLD FROM 18 TO 16
CHANGING MSHR THRESHOLD FROM 16 TO 15
CHANGING MSHR THRESHOLD FROM 15 TO 13
CHANGING MSHR THRESHOLD FROM 13 TO 11
CHANGING MSHR THRESHOLD FROM 11 TO 10
CHANGING MSHR THRESHOLD FROM 10 TO 8
CHANGING MSHR THRESHOLD FROM 8 TO 6
CHANGING MSHR THRESHOLD FROM 6 TO 5
CHANGING MSHR THRESHOLD FROM 5 TO 3
CHANGING MSHR THRESHOLD FROM 3 TO 2
CHANGING MSHR THRESHOLD FROM 2 TO 3
CHANGING MSHR THRESHOLD FROM 3 TO 5
CHANGING MSHR THRESHOLD FROM 5 TO 6
CHANGING MSHR THRESHOLD FROM 6 TO 8
CHANGING MSHR THRESHOLD FROM 8 TO 10
CHANGING MSHR THRESHOLD FROM 10 TO 11
CHANGING MSHR THRESHOLD FROM 11 TO 13
CHANGING MSHR THRESHOLD FROM 13 TO 15
CHANGING MSHR THRESHOLD FROM 15 TO 16
CHANGING MSHR THRESHOLD FROM 16 TO 18
CHANGING MSHR THRESHOLD FROM 18 TO 19
CHANGING MSHR THRESHOLD FROM 19 TO 21
CHANGING MSHR THRESHOLD FROM 21 TO 23
CHANGING MSHR THRESHOLD FROM 23 TO 24
CHANGING MSHR THRESHOLD FROM 24 TO 26
CHANGING MSHR THRESHOLD FROM 26 TO 28
CHANGING MSHR THRESHOLD FROM 28 TO 26
CHANGING MSHR THRESHOLD FROM 26 TO 24
CHANGING MSHR THRESHOLD FROM 24 TO 23
CHANGING MSHR THRESHOLD FROM 23 TO 21
CHANGING MSHR THRESHOLD FROM 21 TO 19
CHANGING MSHR THRESHOLD FROM 19 TO 18
CHANGING MSHR THRESHOLD FROM 18 TO 16
CHANGING MSHR THRESHOLD FROM 16 TO 15
CHANGING MSHR THRESHOLD FROM 15 TO 13
CHANGING MSHR THRESHOLD FROM 13 TO 11
CHANGING MSHR THRESHOLD FROM 11 TO 10
CHANGING MSHR THRESHOLD FROM 10 TO 8
CHANGING MSHR THRESHOLD FROM 8 TO 6
CHANGING MSHR THRESHOLD FROM 6 TO 5
CHANGING MSHR THRESHOLD FROM 5 TO 3
CHANGING MSHR THRESHOLD FROM 3 TO 2
CHANGING MSHR THRESHOLD FROM 2 TO 3
CHANGING MSHR THRESHOLD FROM 3 TO 5
CHANGING MSHR THRESHOLD FROM 5 TO 6
CHANGING MSHR THRESHOLD FROM 6 TO 8
CHANGING MSHR THRESHOLD FROM 8 TO 10
CHANGING MSHR THRESHOLD FROM 10 TO 11
CHANGING MSHR THRESHOLD FROM 11 TO 13
CHANGING MSHR THRESHOLD FROM 13 TO 15
CHANGING MSHR THRESHOLD FROM 15 TO 16
CHANGING MSHR THRESHOLD FROM 16 TO 18
CHANGING MSHR THRESHOLD FROM 18 TO 19
CHANGING MSHR THRESHOLD FROM 19 TO 21
CHANGING MSHR THRESHOLD FROM 21 TO 23
CHANGING MSHR THRESHOLD FROM 23 TO 24
CHANGING MSHR THRESHOLD FROM 24 TO 26
CHANGING MSHR THRESHOLD FROM 26 TO 28
OFFSET CHANGED FROM 1 TO 1
Heartbeat CPU 0 instructions: 50000001 cycles: 16582438 heartbeat IPC: 2.99562 cumulative IPC: 3.01524 (Simulation time: 0 hr 1 min 59 sec) 

Warmup complete CPU 0 instructions: 50000001 cycles: 16582438 (Simulation time: 0 hr 1 min 59 sec) 

OFFSET CHANGED FROM 1 TO 1
OFFSET CHANGED FROM 1 TO 1
OFFSET CHANGED FROM 1 TO 1
OFFSET CHANGED FROM 1 TO 1
OFFSET CHANGED FROM 1 TO 1
OFFSET CHANGED FROM 1 TO 1
OFFSET CHANGED FROM 1 TO 1
OFFSET CHANGED FROM 1 TO 1
OFFSET CHANGED FROM 1 TO 1
OFFSET CHANGED FROM 1 TO 1
OFFSET CHANGED FROM 1 TO 1
OFFSET CHANGED FROM 1 TO 1
Heartbeat CPU 0 instructions: 60000003 cycles: 22731049 heartbeat IPC: 1.62638 cumulative IPC: 1.62638 (Simulation time: 0 hr 2 min 15 sec) 
OFFSET CHANGED FROM 1 TO 1
OFFSET CHANGED FROM 1 TO 1
OFFSET CHANGED FROM 1 TO 1
OFFSET CHANGED FROM 1 TO 1
OFFSET CHANGED FROM 1 TO 1
OFFSET CHANGED FROM 1 TO 1
OFFSET CHANGED FROM 1 TO 1
OFFSET CHANGED FROM 1 TO 1
OFFSET CHANGED FROM 1 TO 1
OFFSET CHANGED FROM 1 TO 1
OFFSET CHANGED FROM 1 TO 1
Heartbeat CPU 0 instructions: 70000000 cycles: 28853817 heartbeat IPC: 1.63325 cumulative IPC: 1.62981 (Simulation time: 0 hr 2 min 31 sec) 
OFFSET CHANGED FROM 1 TO 1
OFFSET CHANGED FROM 1 TO 1
OFFSET CHANGED FROM 1 TO 1
OFFSET CHANGED FROM 1 TO 7
NO PREFETCH REQUEST BECAUSE PREFETCH SCORE 20 IS NOT GREATER THAN 20 (MSHR OCC = 28)
NO PREFETCH REQUEST BECAUSE PREFETCH SCORE 20 IS NOT GREATER THAN 20 (MSHR OCC = 29)
NO PREFETCH REQUEST BECAUSE PREFETCH SCORE 20 IS NOT GREATER THAN 20 (MSHR OCC = 29)
NO PREFETCH REQUEST BECAUSE PREFETCH SCORE 20 IS NOT GREATER THAN 20 (MSHR OCC = 28)
NO PREFETCH REQUEST BECAUSE PREFETCH SCORE 20 IS NOT GREATER THAN 20 (MSHR OCC = 29)
NO PREFETCH REQUEST BECAUSE PREFETCH SCORE 20 IS NOT GREATER THAN 20 (MSHR OCC = 29)
NO PREFETCH REQUEST BECAUSE PREFETCH SCORE 20 IS NOT GREATER THAN 20 (MSHR OCC = 28)
NO PREFETCH REQUEST BECAUSE PREFETCH SCORE 20 IS NOT GREATER THAN 20 (MSHR OCC = 29)
NO PREFETCH REQUEST BECAUSE PREFETCH SCORE 20 IS NOT GREATER THAN 20 (MSHR OCC = 29)
NO PREFETCH REQUEST BECAUSE PREFETCH SCORE 20 IS NOT GREATER THAN 20 (MSHR OCC = 28)
NO PREFETCH REQUEST BECAUSE PREFETCH SCORE 20 IS NOT GREATER THAN 20 (MSHR OCC = 29)
NO PREFETCH REQUEST BECAUSE PREFETCH SCORE 20 IS NOT GREATER THAN 20 (MSHR OCC = 29)
NO PREFETCH REQUEST BECAUSE PREFETCH SCORE 20 IS NOT GREATER THAN 20 (MSHR OCC = 28)
NO PREFETCH REQUEST BECAUSE PREFETCH SCORE 20 IS NOT GREATER THAN 20 (MSHR OCC = 28)
OFFSET CHANGED FROM 7 TO 1
OFFSET CHANGED FROM 1 TO 1
OFFSET CHANGED FROM 1 TO 1
OFFSET CHANGED FROM 1 TO 1
PREFETCHING INTO L2 w/ PREFETCH SCORE 28 (MSHR OCC = 28)
OFFSET CHANGED FROM 1 TO -20
OFFSET CHANGED FROM -20 TO 1
Heartbeat CPU 0 instructions: 80000000 cycles: 35029614 heartbeat IPC: 1.61922 cumulative IPC: 1.62627 (Simulation time: 0 hr 2 min 48 sec) 
OFFSET CHANGED FROM 1 TO 1
OFFSET CHANGED FROM 1 TO 1
OFFSET CHANGED FROM 1 TO 1
OFFSET CHANGED FROM 1 TO 1
OFFSET CHANGED FROM 1 TO 1
OFFSET CHANGED FROM 1 TO 1
PREFETCHING INTO L2 w/ PREFETCH SCORE 31 (MSHR OCC = 28)
OFFSET CHANGED FROM 1 TO 1
OFFSET CHANGED FROM 1 TO 2
OFFSET CHANGED FROM 2 TO 8
OFFSET CHANGED FROM 8 TO 11
OFFSET CHANGED FROM 11 TO 10
OFFSET CHANGED FROM 10 TO 11
OFFSET CHANGED FROM 11 TO 10
OFFSET CHANGED FROM 10 TO 9
OFFSET CHANGED FROM 9 TO 8
OFFSET CHANGED FROM 8 TO 8
OFFSET CHANGED FROM 8 TO 9
OFFSET CHANGED FROM 9 TO 11
OFFSET CHANGED FROM 11 TO 11
OFFSET CHANGED FROM 11 TO 11
OFFSET CHANGED FROM 11 TO 10
OFFSET CHANGED FROM 10 TO 9
OFFSET CHANGED FROM 9 TO 10
OFFSET CHANGED FROM 10 TO 7
OFFSET CHANGED FROM 7 TO 7
OFFSET CHANGED FROM 7 TO 8
OFFSET CHANGED FROM 8 TO 7
PREFETCHING INTO L2 w/ PREFETCH SCORE 31 (MSHR OCC = 30)
PREFETCHING INTO L2 w/ PREFETCH SCORE 31 (MSHR OCC = 28)
PREFETCHING INTO L2 w/ PREFETCH SCORE 31 (MSHR OCC = 28)
OFFSET CHANGED FROM 7 TO 8
OFFSET CHANGED FROM 8 TO 7
OFFSET CHANGED FROM 7 TO 8
OFFSET CHANGED FROM 8 TO 8
OFFSET CHANGED FROM 8 TO 8
OFFSET CHANGED FROM 8 TO 3
OFFSET CHANGED FROM 3 TO 2
OFFSET CHANGED FROM 2 TO 2
OFFSET CHANGED FROM 2 TO 2
OFFSET CHANGED FROM 2 TO 2
OFFSET CHANGED FROM 2 TO 2
OFFSET CHANGED FROM 2 TO 2
OFFSET CHANGED FROM 2 TO 2
OFFSET CHANGED FROM 2 TO 6
OFFSET CHANGED FROM 6 TO 9
OFFSET CHANGED FROM 9 TO 9
OFFSET CHANGED FROM 9 TO 8
OFFSET CHANGED FROM 8 TO 8
OFFSET CHANGED FROM 8 TO 1
OFFSET CHANGED FROM 1 TO 1
OFFSET CHANGED FROM 1 TO 1
OFFSET CHANGED FROM 1 TO 1
OFFSET CHANGED FROM 1 TO 2
OFFSET CHANGED FROM 2 TO 2
Heartbeat CPU 0 instructions: 90000001 cycles: 44254513 heartbeat IPC: 1.08402 cumulative IPC: 1.4455 (Simulation time: 0 hr 3 min 7 sec) 
OFFSET CHANGED FROM 2 TO 1
OFFSET CHANGED FROM 1 TO 1
OFFSET CHANGED FROM 1 TO 1
OFFSET CHANGED FROM 1 TO 2
OFFSET CHANGED FROM 2 TO 3
OFFSET CHANGED FROM 3 TO 3
OFFSET CHANGED FROM 3 TO 4
OFFSET CHANGED FROM 4 TO 5
OFFSET CHANGED FROM 5 TO 6
OFFSET CHANGED FROM 6 TO 6
OFFSET CHANGED FROM 6 TO 8
Heartbeat CPU 0 instructions: 100000001 cycles: 50065259 heartbeat IPC: 1.72095 cumulative IPC: 1.4933 (Simulation time: 0 hr 3 min 20 sec) 
OFFSET CHANGED FROM 8 TO 3
OFFSET CHANGED FROM 3 TO 3
PREFETCHING INTO L2 w/ PREFETCH SCORE 31 (MSHR OCC = 28)
PREFETCHING INTO L2 w/ PREFETCH SCORE 31 (MSHR OCC = 28)
PREFETCHING INTO L2 w/ PREFETCH SCORE 31 (MSHR OCC = 28)
PREFETCHING INTO L2 w/ PREFETCH SCORE 31 (MSHR OCC = 29)
PREFETCHING INTO L2 w/ PREFETCH SCORE 31 (MSHR OCC = 28)
OFFSET CHANGED FROM 3 TO 1
OFFSET CHANGED FROM 1 TO 1
OFFSET CHANGED FROM 1 TO 1
OFFSET CHANGED FROM 1 TO 1
OFFSET CHANGED FROM 1 TO 1
OFFSET CHANGED FROM 1 TO 1
OFFSET CHANGED FROM 1 TO 1
OFFSET CHANGED FROM 1 TO 1
OFFSET CHANGED FROM 1 TO 1
OFFSET CHANGED FROM 1 TO 1
OFFSET CHANGED FROM 1 TO 1
OFFSET CHANGED FROM 1 TO 1
OFFSET CHANGED FROM 1 TO 1
OFFSET CHANGED FROM 1 TO 1
PREFETCHING INTO L2 w/ PREFETCH SCORE 31 (MSHR OCC = 28)
Heartbeat CPU 0 instructions: 110000000 cycles: 56501094 heartbeat IPC: 1.5538 cumulative IPC: 1.50306 (Simulation time: 0 hr 3 min 34 sec) 
OFFSET CHANGED FROM 1 TO -1
Heartbeat CPU 0 instructions: 120000002 cycles: 62985920 heartbeat IPC: 1.54206 cumulative IPC: 1.50851 (Simulation time: 0 hr 3 min 50 sec) 
OFFSET CHANGED FROM -1 TO -1
Heartbeat CPU 0 instructions: 130000000 cycles: 69373772 heartbeat IPC: 1.56547 cumulative IPC: 1.5154 (Simulation time: 0 hr 4 min 6 sec) 
OFFSET CHANGED FROM -1 TO -1
Heartbeat CPU 0 instructions: 140000001 cycles: 75758186 heartbeat IPC: 1.56631 cumulative IPC: 1.52089 (Simulation time: 0 hr 4 min 21 sec) 
OFFSET CHANGED FROM -1 TO -1
Heartbeat CPU 0 instructions: 150000003 cycles: 82132264 heartbeat IPC: 1.56885 cumulative IPC: 1.52556 (Simulation time: 0 hr 4 min 38 sec) 
OFFSET CHANGED FROM -1 TO -1
Heartbeat CPU 0 instructions: 160000000 cycles: 88510835 heartbeat IPC: 1.56775 cumulative IPC: 1.5293 (Simulation time: 0 hr 4 min 53 sec) 
OFFSET CHANGED FROM -1 TO -2
Heartbeat CPU 0 instructions: 170000000 cycles: 94900162 heartbeat IPC: 1.56511 cumulative IPC: 1.53222 (Simulation time: 0 hr 5 min 9 sec) 
OFFSET CHANGED FROM -2 TO -1
Heartbeat CPU 0 instructions: 180000000 cycles: 101294733 heartbeat IPC: 1.56383 cumulative IPC: 1.53461 (Simulation time: 0 hr 5 min 25 sec) 
OFFSET CHANGED FROM -1 TO -1
OFFSET CHANGED FROM -1 TO -1
Heartbeat CPU 0 instructions: 190000000 cycles: 107686157 heartbeat IPC: 1.5646 cumulative IPC: 1.53671 (Simulation time: 0 hr 5 min 40 sec) 
OFFSET CHANGED FROM -1 TO -1
Heartbeat CPU 0 instructions: 200000000 cycles: 114086502 heartbeat IPC: 1.56242 cumulative IPC: 1.5384 (Simulation time: 0 hr 5 min 56 sec) 
OFFSET CHANGED FROM -1 TO -1
Heartbeat CPU 0 instructions: 210000000 cycles: 120481123 heartbeat IPC: 1.56381 cumulative IPC: 1.53996 (Simulation time: 0 hr 6 min 12 sec) 
OFFSET CHANGED FROM -1 TO -1
Heartbeat CPU 0 instructions: 220000000 cycles: 126872344 heartbeat IPC: 1.56465 cumulative IPC: 1.54139 (Simulation time: 0 hr 6 min 27 sec) 
OFFSET CHANGED FROM -1 TO -1
Heartbeat CPU 0 instructions: 230000000 cycles: 133267166 heartbeat IPC: 1.56377 cumulative IPC: 1.54262 (Simulation time: 0 hr 6 min 43 sec) 
OFFSET CHANGED FROM -1 TO -1
Heartbeat CPU 0 instructions: 240000003 cycles: 139660698 heartbeat IPC: 1.56408 cumulative IPC: 1.54373 (Simulation time: 0 hr 6 min 59 sec) 
OFFSET CHANGED FROM -1 TO -1
OFFSET CHANGED FROM -1 TO -1
Heartbeat CPU 0 instructions: 250000000 cycles: 146048231 heartbeat IPC: 1.56555 cumulative IPC: 1.54481 (Simulation time: 0 hr 7 min 14 sec) 
OFFSET CHANGED FROM -1 TO -1
Heartbeat CPU 0 instructions: 260000001 cycles: 152441158 heartbeat IPC: 1.56423 cumulative IPC: 1.54572 (Simulation time: 0 hr 7 min 30 sec) 
OFFSET CHANGED FROM -1 TO -12
Heartbeat CPU 0 instructions: 270000003 cycles: 158833140 heartbeat IPC: 1.56446 cumulative IPC: 1.54657 (Simulation time: 0 hr 7 min 45 sec) 
OFFSET CHANGED FROM -12 TO -1
Heartbeat CPU 0 instructions: 280000000 cycles: 165235150 heartbeat IPC: 1.56201 cumulative IPC: 1.54723 (Simulation time: 0 hr 8 min 1 sec) 
OFFSET CHANGED FROM -1 TO -1
Heartbeat CPU 0 instructions: 290000003 cycles: 171628299 heartbeat IPC: 1.56417 cumulative IPC: 1.54793 (Simulation time: 0 hr 8 min 17 sec) 
OFFSET CHANGED FROM -1 TO -1
Heartbeat CPU 0 instructions: 300000000 cycles: 178027288 heartbeat IPC: 1.56275 cumulative IPC: 1.54852 (Simulation time: 0 hr 8 min 32 sec) 
Finished CPU 0 instructions: 250000003 cycles: 161444851 cumulative IPC: 1.54852 (Simulation time: 0 hr 8 min 32 sec) 

ChampSim completed all CPUs

Region of Interest Statistics

CPU 0 cumulative IPC: 1.54852 instructions: 250000003 cycles: 161444851
L1D TOTAL     ACCESS:   41421080  HIT:   41092375  MISS:     328705
L1D LOAD      ACCESS:   22530804  HIT:   22285925  MISS:     244879
L1D RFO       ACCESS:   18890276  HIT:   18806450  MISS:      83826
L1D PREFETCH  ACCESS:          0  HIT:          0  MISS:          0
L1D WRITEBACK ACCESS:          0  HIT:          0  MISS:          0
L1D PREFETCH  REQUESTED:          0  ISSUED:          0  USEFUL:          0  USELESS:          0
L1D AVERAGE MISS LATENCY: 98.3825 cycles
L1I TOTAL     ACCESS:   40185103  HIT:   40092798  MISS:      92305
L1I LOAD      ACCESS:   40137778  HIT:   40073126  MISS:      64652
L1I RFO       ACCESS:          0  HIT:          0  MISS:          0
L1I PREFETCH  ACCESS:      47325  HIT:      19672  MISS:      27653
L1I WRITEBACK ACCESS:          0  HIT:          0  MISS:          0
L1I PREFETCH  REQUESTED:      85050  ISSUED:      85050  USEFUL:      20911  USELESS:       6738
L1I AVERAGE MISS LATENCY: 15.4591 cycles
L2C TOTAL     ACCESS:     792772  HIT:     529519  MISS:     263253
L2C LOAD      ACCESS:     302162  HIT:     252489  MISS:      49673
L2C RFO       ACCESS:      83377  HIT:      18824  MISS:      64553
L2C PREFETCH  ACCESS:     305511  HIT:     156649  MISS:     148862
L2C WRITEBACK ACCESS:     101722  HIT:     101557  MISS:        165
L2C PREFETCH  REQUESTED:     323792  ISSUED:     323782  USEFUL:     138629  USELESS:      10709
L2C AVERAGE MISS LATENCY: 200.111 cycles
LLC TOTAL     ACCESS:     347205  HIT:     133944  MISS:     213261
LLC LOAD      ACCESS:      30123  HIT:       9362  MISS:      20761
LLC RFO       ACCESS:      64527  HIT:        126  MISS:      64401
LLC PREFETCH  ACCESS:     168447  HIT:      40564  MISS:     127883
LLC WRITEBACK ACCESS:      84108  HIT:      83892  MISS:        216
LLC PREFETCH  REQUESTED:          0  ISSUED:          0  USEFUL:       1645  USELESS:     121760
LLC AVERAGE MISS LATENCY: 225.518 cycles
Major fault: 0 Minor fault: 4741
CPU 0 L1I next line prefetcher final stats
CPU 0 L2C best offset prefetcher final stats

DRAM Statistics
 CHANNEL 0
 RQ ROW_BUFFER_HIT:      89256  ROW_BUFFER_MISS:     123763
 DBUS_CONGESTED:     125687
 WQ ROW_BUFFER_HIT:      15050  ROW_BUFFER_MISS:      74194  FULL:          0

 AVG_CONGESTED_CYCLE: 6

CPU 0 Branch Prediction Accuracy: 89.991% MPKI: 3.4723 Average ROB Occupancy at Mispredict: 54.2601

Branch types
NOT_BRANCH: 241326746 96.5307%
BRANCH_DIRECT_JUMP: 181905 0.072762%
BRANCH_INDIRECT: 12124 0.0048496%
BRANCH_CONDITIONAL: 6973238 2.7893%
BRANCH_DIRECT_CALL: 366581 0.146632%
BRANCH_INDIRECT_CALL: 386239 0.154496%
BRANCH_RETURN: 752814 0.301126%
BRANCH_OTHER: 0 0%

