
*** ChampSim Multicore Out-of-Order Simulator ***

Warmup Instructions: 50000000
Simulation Instructions: 250000000
Number of CPUs: 1
LLC sets: 2048
LLC ways: 16
Off-chip DRAM Size: 4096 MB Channels: 1 Width: 64-bit Data Rate: 3200 MT/s

CPU 0 runs /home/wezelis2/ECE511_Project/ChampSim/dpc3_traces/654.roms_s-293B.champsimtrace.xz
CPU 0 Bimodal branch predictor
CPU 0 L1I next line prefetcher
INIT BEST RECENT REQUEST TABLE MODULE
INIT DELAY QUEUE MODULE
INIT PREFETCH THROTTLE MODULE
INIT OFFSET SCORE MODULE
INIT BEST OFFSET PREFETCHER
OFFSET CHANGED FROM 1 TO 2
OFFSET CHANGED FROM 2 TO 1
OFFSET CHANGED FROM 1 TO 2
OFFSET CHANGED FROM 2 TO 2
OFFSET CHANGED FROM 2 TO 2
OFFSET CHANGED FROM 2 TO 2
OFFSET CHANGED FROM 2 TO 2
OFFSET CHANGED FROM 2 TO 4
OFFSET CHANGED FROM 4 TO 2
OFFSET CHANGED FROM 2 TO 1
OFFSET CHANGED FROM 1 TO 1
OFFSET CHANGED FROM 1 TO 1
OFFSET CHANGED FROM 1 TO 1
OFFSET CHANGED FROM 1 TO 1
OFFSET CHANGED FROM 1 TO 2
OFFSET CHANGED FROM 2 TO 2
OFFSET CHANGED FROM 2 TO 1
OFFSET CHANGED FROM 1 TO 1
OFFSET CHANGED FROM 1 TO 1
OFFSET CHANGED FROM 1 TO 2
OFFSET CHANGED FROM 2 TO 2
OFFSET CHANGED FROM 2 TO 3
OFFSET CHANGED FROM 3 TO 2
OFFSET CHANGED FROM 2 TO 2
OFFSET CHANGED FROM 2 TO 2
OFFSET CHANGED FROM 2 TO 2
OFFSET CHANGED FROM 2 TO 3
OFFSET CHANGED FROM 3 TO 4
OFFSET CHANGED FROM 4 TO 5
OFFSET CHANGED FROM 5 TO 2
OFFSET CHANGED FROM 2 TO 1
OFFSET CHANGED FROM 1 TO 1
OFFSET CHANGED FROM 1 TO 2
OFFSET CHANGED FROM 2 TO 1
Heartbeat CPU 0 instructions: 10000001 cycles: 3877856 heartbeat IPC: 2.57874 cumulative IPC: 2.57874 (Simulation time: 0 hr 0 min 29 sec) 
OFFSET CHANGED FROM 1 TO 2
OFFSET CHANGED FROM 2 TO 2
OFFSET CHANGED FROM 2 TO 2
OFFSET CHANGED FROM 2 TO 2
OFFSET CHANGED FROM 2 TO 1
OFFSET CHANGED FROM 1 TO 1
OFFSET CHANGED FROM 1 TO 2
OFFSET CHANGED FROM 2 TO 2
OFFSET CHANGED FROM 2 TO 2
OFFSET CHANGED FROM 2 TO 2
OFFSET CHANGED FROM 2 TO 2
OFFSET CHANGED FROM 2 TO 1
OFFSET CHANGED FROM 1 TO 1
OFFSET CHANGED FROM 1 TO 1
OFFSET CHANGED FROM 1 TO 3
OFFSET CHANGED FROM 3 TO 2
OFFSET CHANGED FROM 2 TO 1
OFFSET CHANGED FROM 1 TO 1
OFFSET CHANGED FROM 1 TO 2
OFFSET CHANGED FROM 2 TO 2
OFFSET CHANGED FROM 2 TO 1
OFFSET CHANGED FROM 1 TO 2
OFFSET CHANGED FROM 2 TO 5
OFFSET CHANGED FROM 5 TO 4
OFFSET CHANGED FROM 4 TO 4
OFFSET CHANGED FROM 4 TO 5
OFFSET CHANGED FROM 5 TO 1
OFFSET CHANGED FROM 1 TO 3
OFFSET CHANGED FROM 3 TO 1
OFFSET CHANGED FROM 1 TO 1
OFFSET CHANGED FROM 1 TO 2
OFFSET CHANGED FROM 2 TO 2
OFFSET CHANGED FROM 2 TO 2
OFFSET CHANGED FROM 2 TO 2
OFFSET CHANGED FROM 2 TO 1
OFFSET CHANGED FROM 1 TO 1
OFFSET CHANGED FROM 1 TO 1
OFFSET CHANGED FROM 1 TO 2
OFFSET CHANGED FROM 2 TO 2
OFFSET CHANGED FROM 2 TO 1
OFFSET CHANGED FROM 1 TO 3
OFFSET CHANGED FROM 3 TO 1
OFFSET CHANGED FROM 1 TO 1
OFFSET CHANGED FROM 1 TO 2
OFFSET CHANGED FROM 2 TO 3
OFFSET CHANGED FROM 3 TO 1
OFFSET CHANGED FROM 1 TO 1
OFFSET CHANGED FROM 1 TO 1
OFFSET CHANGED FROM 1 TO 3
OFFSET CHANGED FROM 3 TO 1
OFFSET CHANGED FROM 1 TO 1
OFFSET CHANGED FROM 1 TO 1
OFFSET CHANGED FROM 1 TO 1
OFFSET CHANGED FROM 1 TO 3
OFFSET CHANGED FROM 3 TO 2
OFFSET CHANGED FROM 2 TO 4
OFFSET CHANGED FROM 4 TO 2
OFFSET CHANGED FROM 2 TO 1
Heartbeat CPU 0 instructions: 20000003 cycles: 7879146 heartbeat IPC: 2.49919 cumulative IPC: 2.53835 (Simulation time: 0 hr 0 min 58 sec) 
OFFSET CHANGED FROM 1 TO 2
OFFSET CHANGED FROM 2 TO 1
OFFSET CHANGED FROM 1 TO 3
OFFSET CHANGED FROM 3 TO 2
OFFSET CHANGED FROM 2 TO 2
OFFSET CHANGED FROM 2 TO 1
OFFSET CHANGED FROM 1 TO 1
OFFSET CHANGED FROM 1 TO 1
OFFSET CHANGED FROM 1 TO 2
OFFSET CHANGED FROM 2 TO 1
OFFSET CHANGED FROM 1 TO 1
OFFSET CHANGED FROM 1 TO 1
OFFSET CHANGED FROM 1 TO 1
OFFSET CHANGED FROM 1 TO 1
OFFSET CHANGED FROM 1 TO 1
OFFSET CHANGED FROM 1 TO 2
OFFSET CHANGED FROM 2 TO 1
OFFSET CHANGED FROM 1 TO 1
OFFSET CHANGED FROM 1 TO 7
OFFSET CHANGED FROM 7 TO 1
OFFSET CHANGED FROM 1 TO 1
OFFSET CHANGED FROM 1 TO 1
OFFSET CHANGED FROM 1 TO 1
OFFSET CHANGED FROM 1 TO 2
OFFSET CHANGED FROM 2 TO 1
OFFSET CHANGED FROM 1 TO 1
OFFSET CHANGED FROM 1 TO 4
OFFSET CHANGED FROM 4 TO 4
OFFSET CHANGED FROM 4 TO 8
OFFSET CHANGED FROM 8 TO 4
OFFSET CHANGED FROM 4 TO 5
OFFSET CHANGED FROM 5 TO 2
OFFSET CHANGED FROM 2 TO 2
OFFSET CHANGED FROM 2 TO 1
Heartbeat CPU 0 instructions: 30000000 cycles: 11756600 heartbeat IPC: 2.57901 cumulative IPC: 2.55176 (Simulation time: 0 hr 1 min 27 sec) 
OFFSET CHANGED FROM 1 TO 1
OFFSET CHANGED FROM 1 TO 2
OFFSET CHANGED FROM 2 TO 2
OFFSET CHANGED FROM 2 TO 1
OFFSET CHANGED FROM 1 TO 2
OFFSET CHANGED FROM 2 TO 1
OFFSET CHANGED FROM 1 TO 3
OFFSET CHANGED FROM 3 TO 1
OFFSET CHANGED FROM 1 TO 1
OFFSET CHANGED FROM 1 TO 1
OFFSET CHANGED FROM 1 TO 1
OFFSET CHANGED FROM 1 TO 2
OFFSET CHANGED FROM 2 TO 4
OFFSET CHANGED FROM 4 TO 6
OFFSET CHANGED FROM 6 TO 1
OFFSET CHANGED FROM 1 TO 1
OFFSET CHANGED FROM 1 TO 1
OFFSET CHANGED FROM 1 TO 2
OFFSET CHANGED FROM 2 TO 2
OFFSET CHANGED FROM 2 TO 1
OFFSET CHANGED FROM 1 TO 1
OFFSET CHANGED FROM 1 TO 2
OFFSET CHANGED FROM 2 TO 2
OFFSET CHANGED FROM 2 TO 3
OFFSET CHANGED FROM 3 TO 3
OFFSET CHANGED FROM 3 TO 4
OFFSET CHANGED FROM 4 TO 2
OFFSET CHANGED FROM 2 TO 1
OFFSET CHANGED FROM 1 TO 1
OFFSET CHANGED FROM 1 TO 1
OFFSET CHANGED FROM 1 TO 1
OFFSET CHANGED FROM 1 TO 1
OFFSET CHANGED FROM 1 TO 2
OFFSET CHANGED FROM 2 TO 3
OFFSET CHANGED FROM 3 TO 1
OFFSET CHANGED FROM 1 TO 2
OFFSET CHANGED FROM 2 TO 1
OFFSET CHANGED FROM 1 TO 2
OFFSET CHANGED FROM 2 TO 2
OFFSET CHANGED FROM 2 TO 2
OFFSET CHANGED FROM 2 TO 1
OFFSET CHANGED FROM 1 TO 2
OFFSET CHANGED FROM 2 TO 2
OFFSET CHANGED FROM 2 TO 2
OFFSET CHANGED FROM 2 TO 3
OFFSET CHANGED FROM 3 TO 3
OFFSET CHANGED FROM 3 TO 4
OFFSET CHANGED FROM 4 TO 2
OFFSET CHANGED FROM 2 TO 1
OFFSET CHANGED FROM 1 TO 2
OFFSET CHANGED FROM 2 TO 1
OFFSET CHANGED FROM 1 TO 2
OFFSET CHANGED FROM 2 TO 1
OFFSET CHANGED FROM 1 TO 2
OFFSET CHANGED FROM 2 TO 4
OFFSET CHANGED FROM 4 TO 5
OFFSET CHANGED FROM 5 TO 6
OFFSET CHANGED FROM 6 TO 5
Heartbeat CPU 0 instructions: 40000003 cycles: 15758034 heartbeat IPC: 2.4991 cumulative IPC: 2.53839 (Simulation time: 0 hr 1 min 58 sec) 
OFFSET CHANGED FROM 5 TO 1
OFFSET CHANGED FROM 1 TO 1
OFFSET CHANGED FROM 1 TO 3
OFFSET CHANGED FROM 3 TO 1
OFFSET CHANGED FROM 1 TO 3
OFFSET CHANGED FROM 3 TO 3
OFFSET CHANGED FROM 3 TO 1
OFFSET CHANGED FROM 1 TO 2
OFFSET CHANGED FROM 2 TO 2
OFFSET CHANGED FROM 2 TO 1
OFFSET CHANGED FROM 1 TO 3
OFFSET CHANGED FROM 3 TO 1
OFFSET CHANGED FROM 1 TO 1
OFFSET CHANGED FROM 1 TO 1
OFFSET CHANGED FROM 1 TO 3
OFFSET CHANGED FROM 3 TO 2
OFFSET CHANGED FROM 2 TO 2
OFFSET CHANGED FROM 2 TO 2
OFFSET CHANGED FROM 2 TO 1
OFFSET CHANGED FROM 1 TO 2
OFFSET CHANGED FROM 2 TO 1
OFFSET CHANGED FROM 1 TO 1
OFFSET CHANGED FROM 1 TO 1
OFFSET CHANGED FROM 1 TO 1
OFFSET CHANGED FROM 1 TO 1
OFFSET CHANGED FROM 1 TO 2
OFFSET CHANGED FROM 2 TO 2
OFFSET CHANGED FROM 2 TO 4
OFFSET CHANGED FROM 4 TO 5
OFFSET CHANGED FROM 5 TO 6
OFFSET CHANGED FROM 6 TO 3
OFFSET CHANGED FROM 3 TO 1
OFFSET CHANGED FROM 1 TO 1
OFFSET CHANGED FROM 1 TO 3
Heartbeat CPU 0 instructions: 50000003 cycles: 19635897 heartbeat IPC: 2.57874 cumulative IPC: 2.54636 (Simulation time: 0 hr 2 min 27 sec) 

Warmup complete CPU 0 instructions: 50000003 cycles: 19635897 (Simulation time: 0 hr 2 min 27 sec) 

OFFSET CHANGED FROM 3 TO 1
OFFSET CHANGED FROM 1 TO 1
OFFSET CHANGED FROM 1 TO 2
OFFSET CHANGED FROM 2 TO 2
OFFSET CHANGED FROM 2 TO 1
OFFSET CHANGED FROM 1 TO 2
OFFSET CHANGED FROM 2 TO 1
OFFSET CHANGED FROM 1 TO 1
OFFSET CHANGED FROM 1 TO 1
OFFSET CHANGED FROM 1 TO 2
OFFSET CHANGED FROM 2 TO 2
OFFSET CHANGED FROM 2 TO 2
OFFSET CHANGED FROM 2 TO 5
OFFSET CHANGED FROM 5 TO 1
OFFSET CHANGED FROM 1 TO 4
OFFSET CHANGED FROM 4 TO 2
OFFSET CHANGED FROM 2 TO 2
OFFSET CHANGED FROM 2 TO 3
OFFSET CHANGED FROM 3 TO 2
OFFSET CHANGED FROM 2 TO 1
OFFSET CHANGED FROM 1 TO 1
OFFSET CHANGED FROM 1 TO 1
OFFSET CHANGED FROM 1 TO 1
OFFSET CHANGED FROM 1 TO 3
OFFSET CHANGED FROM 3 TO 2
OFFSET CHANGED FROM 2 TO 3
OFFSET CHANGED FROM 3 TO 3
OFFSET CHANGED FROM 3 TO 2
OFFSET CHANGED FROM 2 TO 4
OFFSET CHANGED FROM 4 TO 3
OFFSET CHANGED FROM 3 TO 3
OFFSET CHANGED FROM 3 TO 1
OFFSET CHANGED FROM 1 TO 3
OFFSET CHANGED FROM 3 TO 2
OFFSET CHANGED FROM 2 TO 2
OFFSET CHANGED FROM 2 TO 2
OFFSET CHANGED FROM 2 TO 3
OFFSET CHANGED FROM 3 TO 1
OFFSET CHANGED FROM 1 TO 2
OFFSET CHANGED FROM 2 TO 1
OFFSET CHANGED FROM 1 TO 2
OFFSET CHANGED FROM 2 TO 1
OFFSET CHANGED FROM 1 TO 1
OFFSET CHANGED FROM 1 TO 1
OFFSET CHANGED FROM 1 TO 1
OFFSET CHANGED FROM 1 TO 2
OFFSET CHANGED FROM 2 TO 1
OFFSET CHANGED FROM 1 TO 1
OFFSET CHANGED FROM 1 TO 1
OFFSET CHANGED FROM 1 TO 1
OFFSET CHANGED FROM 1 TO 1
OFFSET CHANGED FROM 1 TO 3
OFFSET CHANGED FROM 3 TO 1
OFFSET CHANGED FROM 1 TO 1
OFFSET CHANGED FROM 1 TO 7
OFFSET CHANGED FROM 7 TO 7
OFFSET CHANGED FROM 7 TO 7
Heartbeat CPU 0 instructions: 60000002 cycles: 25831361 heartbeat IPC: 1.61408 cumulative IPC: 1.61408 (Simulation time: 0 hr 2 min 58 sec) 
OFFSET CHANGED FROM 7 TO 10
OFFSET CHANGED FROM 10 TO 2
OFFSET CHANGED FROM 2 TO 1
OFFSET CHANGED FROM 1 TO 1
OFFSET CHANGED FROM 1 TO 3
OFFSET CHANGED FROM 3 TO 2
OFFSET CHANGED FROM 2 TO 3
OFFSET CHANGED FROM 3 TO 3
OFFSET CHANGED FROM 3 TO 2
OFFSET CHANGED FROM 2 TO 3
OFFSET CHANGED FROM 3 TO 4
OFFSET CHANGED FROM 4 TO 2
OFFSET CHANGED FROM 2 TO 2
OFFSET CHANGED FROM 2 TO 2
OFFSET CHANGED FROM 2 TO 2
OFFSET CHANGED FROM 2 TO 2
OFFSET CHANGED FROM 2 TO 3
OFFSET CHANGED FROM 3 TO 2
OFFSET CHANGED FROM 2 TO 1
OFFSET CHANGED FROM 1 TO 1
OFFSET CHANGED FROM 1 TO 1
OFFSET CHANGED FROM 1 TO 1
OFFSET CHANGED FROM 1 TO 2
OFFSET CHANGED FROM 2 TO 1
OFFSET CHANGED FROM 1 TO 2
OFFSET CHANGED FROM 2 TO 5
OFFSET CHANGED FROM 5 TO 3
OFFSET CHANGED FROM 3 TO 4
OFFSET CHANGED FROM 4 TO 5
OFFSET CHANGED FROM 5 TO 6
OFFSET CHANGED FROM 6 TO 8
OFFSET CHANGED FROM 8 TO 2
OFFSET CHANGED FROM 2 TO 3
OFFSET CHANGED FROM 3 TO 1
Heartbeat CPU 0 instructions: 70000003 cycles: 31290986 heartbeat IPC: 1.83163 cumulative IPC: 1.71599 (Simulation time: 0 hr 3 min 28 sec) 
OFFSET CHANGED FROM 1 TO 2
OFFSET CHANGED FROM 2 TO 2
OFFSET CHANGED FROM 2 TO 2
OFFSET CHANGED FROM 2 TO 2
OFFSET CHANGED FROM 2 TO 2
OFFSET CHANGED FROM 2 TO 3
PREFETCHING INTO L2 w/ PREFETCH SCORE 31 (MSHR OCC = 28)
PREFETCHING INTO L2 w/ PREFETCH SCORE 31 (MSHR OCC = 28)
OFFSET CHANGED FROM 3 TO 4
OFFSET CHANGED FROM 4 TO 2
OFFSET CHANGED FROM 2 TO 1
OFFSET CHANGED FROM 1 TO 1
OFFSET CHANGED FROM 1 TO 1
OFFSET CHANGED FROM 1 TO 1
OFFSET CHANGED FROM 1 TO 3
OFFSET CHANGED FROM 3 TO 1
OFFSET CHANGED FROM 1 TO 4
OFFSET CHANGED FROM 4 TO 1
OFFSET CHANGED FROM 1 TO 2
OFFSET CHANGED FROM 2 TO 3
OFFSET CHANGED FROM 3 TO 3
OFFSET CHANGED FROM 3 TO 2
OFFSET CHANGED FROM 2 TO 3
OFFSET CHANGED FROM 3 TO 2
OFFSET CHANGED FROM 2 TO 2
OFFSET CHANGED FROM 2 TO 1
OFFSET CHANGED FROM 1 TO 4
OFFSET CHANGED FROM 4 TO 5
OFFSET CHANGED FROM 5 TO 5
OFFSET CHANGED FROM 5 TO 4
OFFSET CHANGED FROM 4 TO 2
OFFSET CHANGED FROM 2 TO 2
OFFSET CHANGED FROM 2 TO 1
OFFSET CHANGED FROM 1 TO 1
OFFSET CHANGED FROM 1 TO 2
OFFSET CHANGED FROM 2 TO 3
OFFSET CHANGED FROM 3 TO 2
OFFSET CHANGED FROM 2 TO 2
OFFSET CHANGED FROM 2 TO 2
OFFSET CHANGED FROM 2 TO 3
OFFSET CHANGED FROM 3 TO 3
OFFSET CHANGED FROM 3 TO 2
OFFSET CHANGED FROM 2 TO 1
OFFSET CHANGED FROM 1 TO 2
OFFSET CHANGED FROM 2 TO 1
OFFSET CHANGED FROM 1 TO 2
OFFSET CHANGED FROM 2 TO 1
OFFSET CHANGED FROM 1 TO 3
OFFSET CHANGED FROM 3 TO 1
OFFSET CHANGED FROM 1 TO 1
OFFSET CHANGED FROM 1 TO 3
OFFSET CHANGED FROM 3 TO 1
OFFSET CHANGED FROM 1 TO 1
OFFSET CHANGED FROM 1 TO 3
Heartbeat CPU 0 instructions: 80000000 cycles: 37207816 heartbeat IPC: 1.69009 cumulative IPC: 1.70727 (Simulation time: 0 hr 3 min 58 sec) 
OFFSET CHANGED FROM 3 TO 2
OFFSET CHANGED FROM 2 TO 3
OFFSET CHANGED FROM 3 TO 3
OFFSET CHANGED FROM 3 TO 3
OFFSET CHANGED FROM 3 TO 2
OFFSET CHANGED FROM 2 TO 4
OFFSET CHANGED FROM 4 TO 4
OFFSET CHANGED FROM 4 TO 2
OFFSET CHANGED FROM 2 TO 1
OFFSET CHANGED FROM 1 TO 1
OFFSET CHANGED FROM 1 TO 1
OFFSET CHANGED FROM 1 TO 2
OFFSET CHANGED FROM 2 TO 2
OFFSET CHANGED FROM 2 TO 2
OFFSET CHANGED FROM 2 TO 2
OFFSET CHANGED FROM 2 TO 1
OFFSET CHANGED FROM 1 TO 1
OFFSET CHANGED FROM 1 TO 1
OFFSET CHANGED FROM 1 TO 1
OFFSET CHANGED FROM 1 TO 1
OFFSET CHANGED FROM 1 TO 2
OFFSET CHANGED FROM 2 TO 1
OFFSET CHANGED FROM 1 TO 1
OFFSET CHANGED FROM 1 TO 3
OFFSET CHANGED FROM 3 TO 1
OFFSET CHANGED FROM 1 TO 1
OFFSET CHANGED FROM 1 TO 2
OFFSET CHANGED FROM 2 TO 1
OFFSET CHANGED FROM 1 TO 2
OFFSET CHANGED FROM 2 TO 1
OFFSET CHANGED FROM 1 TO 4
OFFSET CHANGED FROM 4 TO 3
OFFSET CHANGED FROM 3 TO 2
OFFSET CHANGED FROM 2 TO 1
OFFSET CHANGED FROM 1 TO 2
OFFSET CHANGED FROM 2 TO 4
OFFSET CHANGED FROM 4 TO 3
OFFSET CHANGED FROM 3 TO 1
OFFSET CHANGED FROM 1 TO 3
OFFSET CHANGED FROM 3 TO 2
Heartbeat CPU 0 instructions: 90000002 cycles: 42798322 heartbeat IPC: 1.78875 cumulative IPC: 1.72693 (Simulation time: 0 hr 4 min 29 sec) 
OFFSET CHANGED FROM 2 TO 1
OFFSET CHANGED FROM 1 TO 1
OFFSET CHANGED FROM 1 TO 2
OFFSET CHANGED FROM 2 TO 2
OFFSET CHANGED FROM 2 TO 2
OFFSET CHANGED FROM 2 TO 3
PREFETCHING INTO L2 w/ PREFETCH SCORE 31 (MSHR OCC = 28)
PREFETCHING INTO L2 w/ PREFETCH SCORE 31 (MSHR OCC = 28)
PREFETCHING INTO L2 w/ PREFETCH SCORE 31 (MSHR OCC = 29)
PREFETCHING INTO L2 w/ PREFETCH SCORE 31 (MSHR OCC = 29)
PREFETCHING INTO L2 w/ PREFETCH SCORE 31 (MSHR OCC = 28)
OFFSET CHANGED FROM 3 TO 2
OFFSET CHANGED FROM 2 TO 1
OFFSET CHANGED FROM 1 TO 1
OFFSET CHANGED FROM 1 TO 1
OFFSET CHANGED FROM 1 TO 1
OFFSET CHANGED FROM 1 TO 1
OFFSET CHANGED FROM 1 TO 1
OFFSET CHANGED FROM 1 TO 3
OFFSET CHANGED FROM 3 TO 3
OFFSET CHANGED FROM 3 TO 4
OFFSET CHANGED FROM 4 TO 3
OFFSET CHANGED FROM 3 TO 4
OFFSET CHANGED FROM 4 TO 2
OFFSET CHANGED FROM 2 TO 2
OFFSET CHANGED FROM 2 TO 1
OFFSET CHANGED FROM 1 TO 1
OFFSET CHANGED FROM 1 TO 1
OFFSET CHANGED FROM 1 TO 1
OFFSET CHANGED FROM 1 TO 5
OFFSET CHANGED FROM 5 TO 5
OFFSET CHANGED FROM 5 TO 5
OFFSET CHANGED FROM 5 TO 7
OFFSET CHANGED FROM 7 TO 5
OFFSET CHANGED FROM 5 TO 6
OFFSET CHANGED FROM 6 TO 3
OFFSET CHANGED FROM 3 TO 2
OFFSET CHANGED FROM 2 TO 1
OFFSET CHANGED FROM 1 TO 2
OFFSET CHANGED FROM 2 TO 2
OFFSET CHANGED FROM 2 TO 2
OFFSET CHANGED FROM 2 TO 2
OFFSET CHANGED FROM 2 TO 2
OFFSET CHANGED FROM 2 TO 2
OFFSET CHANGED FROM 2 TO 3
OFFSET CHANGED FROM 3 TO 2
OFFSET CHANGED FROM 2 TO 1
Heartbeat CPU 0 instructions: 100000002 cycles: 48688342 heartbeat IPC: 1.69779 cumulative IPC: 1.72103 (Simulation time: 0 hr 5 min 1 sec) 
OFFSET CHANGED FROM 1 TO 1
OFFSET CHANGED FROM 1 TO 1
OFFSET CHANGED FROM 1 TO 6
OFFSET CHANGED FROM 6 TO 7
OFFSET CHANGED FROM 7 TO 2
OFFSET CHANGED FROM 2 TO 3
OFFSET CHANGED FROM 3 TO 2
OFFSET CHANGED FROM 2 TO 2
OFFSET CHANGED FROM 2 TO 2
OFFSET CHANGED FROM 2 TO 2
OFFSET CHANGED FROM 2 TO 1
OFFSET CHANGED FROM 1 TO 2
OFFSET CHANGED FROM 2 TO 3
OFFSET CHANGED FROM 3 TO 4
OFFSET CHANGED FROM 4 TO 2
OFFSET CHANGED FROM 2 TO 4
OFFSET CHANGED FROM 4 TO 3
OFFSET CHANGED FROM 3 TO 1
OFFSET CHANGED FROM 1 TO 2
OFFSET CHANGED FROM 2 TO 3
OFFSET CHANGED FROM 3 TO 2
OFFSET CHANGED FROM 2 TO 2
OFFSET CHANGED FROM 2 TO 2
OFFSET CHANGED FROM 2 TO 2
OFFSET CHANGED FROM 2 TO 2
OFFSET CHANGED FROM 2 TO 3
OFFSET CHANGED FROM 3 TO 1
OFFSET CHANGED FROM 1 TO 1
OFFSET CHANGED FROM 1 TO 1
OFFSET CHANGED FROM 1 TO 1
OFFSET CHANGED FROM 1 TO 2
OFFSET CHANGED FROM 2 TO 2
OFFSET CHANGED FROM 2 TO 1
OFFSET CHANGED FROM 1 TO 2
OFFSET CHANGED FROM 2 TO 2
OFFSET CHANGED FROM 2 TO 2
OFFSET CHANGED FROM 2 TO 1
OFFSET CHANGED FROM 1 TO 1
OFFSET CHANGED FROM 1 TO 1
OFFSET CHANGED FROM 1 TO 1
OFFSET CHANGED FROM 1 TO 2
OFFSET CHANGED FROM 2 TO 3
OFFSET CHANGED FROM 3 TO 3
OFFSET CHANGED FROM 3 TO 3
OFFSET CHANGED FROM 3 TO 3
OFFSET CHANGED FROM 3 TO 4
OFFSET CHANGED FROM 4 TO 6
OFFSET CHANGED FROM 6 TO 2
OFFSET CHANGED FROM 2 TO 1
Heartbeat CPU 0 instructions: 110000000 cycles: 54426432 heartbeat IPC: 1.74274 cumulative IPC: 1.72461 (Simulation time: 0 hr 5 min 33 sec) 
OFFSET CHANGED FROM 1 TO 1
OFFSET CHANGED FROM 1 TO 2
OFFSET CHANGED FROM 2 TO 1
OFFSET CHANGED FROM 1 TO 2
OFFSET CHANGED FROM 2 TO 3
OFFSET CHANGED FROM 3 TO 2
OFFSET CHANGED FROM 2 TO 3
PREFETCHING INTO L2 w/ PREFETCH SCORE 31 (MSHR OCC = 28)
PREFETCHING INTO L2 w/ PREFETCH SCORE 31 (MSHR OCC = 28)
PREFETCHING INTO L2 w/ PREFETCH SCORE 31 (MSHR OCC = 28)
PREFETCHING INTO L2 w/ PREFETCH SCORE 31 (MSHR OCC = 28)
PREFETCHING INTO L2 w/ PREFETCH SCORE 31 (MSHR OCC = 28)
PREFETCHING INTO L2 w/ PREFETCH SCORE 31 (MSHR OCC = 28)
OFFSET CHANGED FROM 3 TO 1
OFFSET CHANGED FROM 1 TO 2
OFFSET CHANGED FROM 2 TO 1
OFFSET CHANGED FROM 1 TO 1
OFFSET CHANGED FROM 1 TO 1
OFFSET CHANGED FROM 1 TO 1
OFFSET CHANGED FROM 1 TO 1
OFFSET CHANGED FROM 1 TO 1
OFFSET CHANGED FROM 1 TO 4
OFFSET CHANGED FROM 4 TO 2
OFFSET CHANGED FROM 2 TO 2
OFFSET CHANGED FROM 2 TO 3
OFFSET CHANGED FROM 3 TO 1
OFFSET CHANGED FROM 1 TO 1
OFFSET CHANGED FROM 1 TO 1
OFFSET CHANGED FROM 1 TO 1
OFFSET CHANGED FROM 1 TO 1
OFFSET CHANGED FROM 1 TO 1
OFFSET CHANGED FROM 1 TO 5
OFFSET CHANGED FROM 5 TO 5
OFFSET CHANGED FROM 5 TO 5
OFFSET CHANGED FROM 5 TO 7
OFFSET CHANGED FROM 7 TO 6
OFFSET CHANGED FROM 6 TO 1
OFFSET CHANGED FROM 1 TO 2
OFFSET CHANGED FROM 2 TO 1
OFFSET CHANGED FROM 1 TO 3
OFFSET CHANGED FROM 3 TO 2
Heartbeat CPU 0 instructions: 120000002 cycles: 60040048 heartbeat IPC: 1.78138 cumulative IPC: 1.7325 (Simulation time: 0 hr 6 min 4 sec) 
OFFSET CHANGED FROM 2 TO 2
OFFSET CHANGED FROM 2 TO 2
OFFSET CHANGED FROM 2 TO 2
OFFSET CHANGED FROM 2 TO 1
OFFSET CHANGED FROM 1 TO 1
OFFSET CHANGED FROM 1 TO 2
OFFSET CHANGED FROM 2 TO 2
OFFSET CHANGED FROM 2 TO 2
OFFSET CHANGED FROM 2 TO 3
OFFSET CHANGED FROM 3 TO 1
OFFSET CHANGED FROM 1 TO 1
OFFSET CHANGED FROM 1 TO 1
OFFSET CHANGED FROM 1 TO 1
OFFSET CHANGED FROM 1 TO 1
OFFSET CHANGED FROM 1 TO 1
OFFSET CHANGED FROM 1 TO 1
OFFSET CHANGED FROM 1 TO 2
OFFSET CHANGED FROM 2 TO 2
OFFSET CHANGED FROM 2 TO 2
OFFSET CHANGED FROM 2 TO 1
OFFSET CHANGED FROM 1 TO 2
OFFSET CHANGED FROM 2 TO 3
OFFSET CHANGED FROM 3 TO 3
OFFSET CHANGED FROM 3 TO 3
OFFSET CHANGED FROM 3 TO 2
OFFSET CHANGED FROM 2 TO 1
OFFSET CHANGED FROM 1 TO 1
OFFSET CHANGED FROM 1 TO 3
OFFSET CHANGED FROM 3 TO 1
OFFSET CHANGED FROM 1 TO 4
OFFSET CHANGED FROM 4 TO 3
OFFSET CHANGED FROM 3 TO 2
OFFSET CHANGED FROM 2 TO 2
OFFSET CHANGED FROM 2 TO 2
OFFSET CHANGED FROM 2 TO 3
OFFSET CHANGED FROM 3 TO 1
OFFSET CHANGED FROM 1 TO 1
OFFSET CHANGED FROM 1 TO 2
OFFSET CHANGED FROM 2 TO 1
OFFSET CHANGED FROM 1 TO 2
OFFSET CHANGED FROM 2 TO 3
OFFSET CHANGED FROM 3 TO 2
OFFSET CHANGED FROM 2 TO 2
OFFSET CHANGED FROM 2 TO 1
OFFSET CHANGED FROM 1 TO 2
OFFSET CHANGED FROM 2 TO 2
OFFSET CHANGED FROM 2 TO 5
OFFSET CHANGED FROM 5 TO 4
OFFSET CHANGED FROM 4 TO 3
OFFSET CHANGED FROM 3 TO 1
OFFSET CHANGED FROM 1 TO 1
OFFSET CHANGED FROM 1 TO 3
OFFSET CHANGED FROM 3 TO 4
OFFSET CHANGED FROM 4 TO 5
OFFSET CHANGED FROM 5 TO 2
OFFSET CHANGED FROM 2 TO 1
OFFSET CHANGED FROM 1 TO 1
OFFSET CHANGED FROM 1 TO 1
OFFSET CHANGED FROM 1 TO 1
OFFSET CHANGED FROM 1 TO 1
OFFSET CHANGED FROM 1 TO 1
OFFSET CHANGED FROM 1 TO 1
OFFSET CHANGED FROM 1 TO 1
OFFSET CHANGED FROM 1 TO 1
OFFSET CHANGED FROM 1 TO 1
OFFSET CHANGED FROM 1 TO 1
OFFSET CHANGED FROM 1 TO 1
OFFSET CHANGED FROM 1 TO 1
OFFSET CHANGED FROM 1 TO 1
Heartbeat CPU 0 instructions: 130000000 cycles: 66452533 heartbeat IPC: 1.55946 cumulative IPC: 1.70879 (Simulation time: 0 hr 6 min 35 sec) 
OFFSET CHANGED FROM 1 TO 4
OFFSET CHANGED FROM 4 TO 3
OFFSET CHANGED FROM 3 TO 2
OFFSET CHANGED FROM 2 TO 2
OFFSET CHANGED FROM 2 TO 1
OFFSET CHANGED FROM 1 TO 1
OFFSET CHANGED FROM 1 TO 1
OFFSET CHANGED FROM 1 TO 1
OFFSET CHANGED FROM 1 TO 1
OFFSET CHANGED FROM 1 TO 1
OFFSET CHANGED FROM 1 TO 1
OFFSET CHANGED FROM 1 TO 1
OFFSET CHANGED FROM 1 TO 1
OFFSET CHANGED FROM 1 TO 1
OFFSET CHANGED FROM 1 TO 1
OFFSET CHANGED FROM 1 TO 1
OFFSET CHANGED FROM 1 TO 1
OFFSET CHANGED FROM 1 TO 1
OFFSET CHANGED FROM 1 TO 1
OFFSET CHANGED FROM 1 TO 3
OFFSET CHANGED FROM 3 TO 3
OFFSET CHANGED FROM 3 TO 1
OFFSET CHANGED FROM 1 TO 1
OFFSET CHANGED FROM 1 TO 1
OFFSET CHANGED FROM 1 TO 1
OFFSET CHANGED FROM 1 TO 1
OFFSET CHANGED FROM 1 TO 3
OFFSET CHANGED FROM 3 TO 1
OFFSET CHANGED FROM 1 TO 1
OFFSET CHANGED FROM 1 TO 1
OFFSET CHANGED FROM 1 TO 1
OFFSET CHANGED FROM 1 TO 1
OFFSET CHANGED FROM 1 TO 1
OFFSET CHANGED FROM 1 TO 1
OFFSET CHANGED FROM 1 TO 1
OFFSET CHANGED FROM 1 TO 2
OFFSET CHANGED FROM 2 TO 1
OFFSET CHANGED FROM 1 TO 1
OFFSET CHANGED FROM 1 TO 1
OFFSET CHANGED FROM 1 TO 1
OFFSET CHANGED FROM 1 TO 1
OFFSET CHANGED FROM 1 TO 1
OFFSET CHANGED FROM 1 TO 1
OFFSET CHANGED FROM 1 TO 1
OFFSET CHANGED FROM 1 TO 1
OFFSET CHANGED FROM 1 TO 1
OFFSET CHANGED FROM 1 TO 1
OFFSET CHANGED FROM 1 TO 1
OFFSET CHANGED FROM 1 TO 1
OFFSET CHANGED FROM 1 TO 1
OFFSET CHANGED FROM 1 TO 1
OFFSET CHANGED FROM 1 TO 2
OFFSET CHANGED FROM 2 TO 1
OFFSET CHANGED FROM 1 TO 1
OFFSET CHANGED FROM 1 TO 2
OFFSET CHANGED FROM 2 TO 1
OFFSET CHANGED FROM 1 TO 1
OFFSET CHANGED FROM 1 TO 1
OFFSET CHANGED FROM 1 TO 1
OFFSET CHANGED FROM 1 TO 1
OFFSET CHANGED FROM 1 TO 1
OFFSET CHANGED FROM 1 TO 1
OFFSET CHANGED FROM 1 TO 1
OFFSET CHANGED FROM 1 TO 1
OFFSET CHANGED FROM 1 TO 1
OFFSET CHANGED FROM 1 TO 1
OFFSET CHANGED FROM 1 TO 1
OFFSET CHANGED FROM 1 TO 1
OFFSET CHANGED FROM 1 TO 1
OFFSET CHANGED FROM 1 TO 1
OFFSET CHANGED FROM 1 TO 1
OFFSET CHANGED FROM 1 TO 1
OFFSET CHANGED FROM 1 TO 1
OFFSET CHANGED FROM 1 TO 1
OFFSET CHANGED FROM 1 TO 1
OFFSET CHANGED FROM 1 TO 3
OFFSET CHANGED FROM 3 TO 1
OFFSET CHANGED FROM 1 TO 1
OFFSET CHANGED FROM 1 TO 1
OFFSET CHANGED FROM 1 TO 1
OFFSET CHANGED FROM 1 TO 1
OFFSET CHANGED FROM 1 TO 1
OFFSET CHANGED FROM 1 TO 1
OFFSET CHANGED FROM 1 TO 2
OFFSET CHANGED FROM 2 TO 1
OFFSET CHANGED FROM 1 TO 1
Heartbeat CPU 0 instructions: 140000003 cycles: 72521801 heartbeat IPC: 1.64765 cumulative IPC: 1.70178 (Simulation time: 0 hr 7 min 7 sec) 
OFFSET CHANGED FROM 1 TO 1
OFFSET CHANGED FROM 1 TO 1
OFFSET CHANGED FROM 1 TO 1
OFFSET CHANGED FROM 1 TO 1
OFFSET CHANGED FROM 1 TO 1
OFFSET CHANGED FROM 1 TO 1
OFFSET CHANGED FROM 1 TO 1
OFFSET CHANGED FROM 1 TO 1
OFFSET CHANGED FROM 1 TO 1
OFFSET CHANGED FROM 1 TO 1
OFFSET CHANGED FROM 1 TO 3
OFFSET CHANGED FROM 3 TO 1
OFFSET CHANGED FROM 1 TO 1
OFFSET CHANGED FROM 1 TO 1
OFFSET CHANGED FROM 1 TO 1
OFFSET CHANGED FROM 1 TO 1
OFFSET CHANGED FROM 1 TO 1
OFFSET CHANGED FROM 1 TO 1
OFFSET CHANGED FROM 1 TO 1
OFFSET CHANGED FROM 1 TO 1
OFFSET CHANGED FROM 1 TO 1
OFFSET CHANGED FROM 1 TO 1
OFFSET CHANGED FROM 1 TO 1
OFFSET CHANGED FROM 1 TO 1
OFFSET CHANGED FROM 1 TO 2
OFFSET CHANGED FROM 2 TO 1
OFFSET CHANGED FROM 1 TO 1
OFFSET CHANGED FROM 1 TO 1
OFFSET CHANGED FROM 1 TO 1
OFFSET CHANGED FROM 1 TO 1
OFFSET CHANGED FROM 1 TO 1
OFFSET CHANGED FROM 1 TO 1
OFFSET CHANGED FROM 1 TO 1
OFFSET CHANGED FROM 1 TO 1
OFFSET CHANGED FROM 1 TO 1
OFFSET CHANGED FROM 1 TO 1
OFFSET CHANGED FROM 1 TO 1
OFFSET CHANGED FROM 1 TO 1
OFFSET CHANGED FROM 1 TO 1
OFFSET CHANGED FROM 1 TO 1
OFFSET CHANGED FROM 1 TO 1
OFFSET CHANGED FROM 1 TO 1
OFFSET CHANGED FROM 1 TO 1
OFFSET CHANGED FROM 1 TO 1
OFFSET CHANGED FROM 1 TO 1
OFFSET CHANGED FROM 1 TO 2
OFFSET CHANGED FROM 2 TO 1
OFFSET CHANGED FROM 1 TO 1
OFFSET CHANGED FROM 1 TO 1
OFFSET CHANGED FROM 1 TO 1
OFFSET CHANGED FROM 1 TO 1
OFFSET CHANGED FROM 1 TO 1
OFFSET CHANGED FROM 1 TO 1
OFFSET CHANGED FROM 1 TO 1
OFFSET CHANGED FROM 1 TO 1
OFFSET CHANGED FROM 1 TO 1
OFFSET CHANGED FROM 1 TO 1
OFFSET CHANGED FROM 1 TO 1
OFFSET CHANGED FROM 1 TO 1
OFFSET CHANGED FROM 1 TO 1
OFFSET CHANGED FROM 1 TO 1
OFFSET CHANGED FROM 1 TO 1
OFFSET CHANGED FROM 1 TO 1
OFFSET CHANGED FROM 1 TO 1
OFFSET CHANGED FROM 1 TO 3
OFFSET CHANGED FROM 3 TO 3
OFFSET CHANGED FROM 3 TO 2
OFFSET CHANGED FROM 2 TO 2
OFFSET CHANGED FROM 2 TO 1
OFFSET CHANGED FROM 1 TO 1
OFFSET CHANGED FROM 1 TO 3
OFFSET CHANGED FROM 3 TO 2
OFFSET CHANGED FROM 2 TO 1
OFFSET CHANGED FROM 1 TO 1
OFFSET CHANGED FROM 1 TO 1
OFFSET CHANGED FROM 1 TO 1
OFFSET CHANGED FROM 1 TO 1
OFFSET CHANGED FROM 1 TO 1
OFFSET CHANGED FROM 1 TO 1
OFFSET CHANGED FROM 1 TO 1
OFFSET CHANGED FROM 1 TO 1
OFFSET CHANGED FROM 1 TO 1
OFFSET CHANGED FROM 1 TO 1
OFFSET CHANGED FROM 1 TO 1
OFFSET CHANGED FROM 1 TO 1
OFFSET CHANGED FROM 1 TO 1
OFFSET CHANGED FROM 1 TO 1
Heartbeat CPU 0 instructions: 150000000 cycles: 78462060 heartbeat IPC: 1.68343 cumulative IPC: 1.69992 (Simulation time: 0 hr 7 min 39 sec) 
OFFSET CHANGED FROM 1 TO 1
OFFSET CHANGED FROM 1 TO 1
OFFSET CHANGED FROM 1 TO 1
OFFSET CHANGED FROM 1 TO 1
OFFSET CHANGED FROM 1 TO 1
OFFSET CHANGED FROM 1 TO 1
OFFSET CHANGED FROM 1 TO 1
OFFSET CHANGED FROM 1 TO 3
OFFSET CHANGED FROM 3 TO 1
OFFSET CHANGED FROM 1 TO 1
OFFSET CHANGED FROM 1 TO 1
OFFSET CHANGED FROM 1 TO 1
OFFSET CHANGED FROM 1 TO 1
OFFSET CHANGED FROM 1 TO 1
OFFSET CHANGED FROM 1 TO 1
OFFSET CHANGED FROM 1 TO 1
OFFSET CHANGED FROM 1 TO 1
OFFSET CHANGED FROM 1 TO 1
OFFSET CHANGED FROM 1 TO 1
OFFSET CHANGED FROM 1 TO 1
OFFSET CHANGED FROM 1 TO 1
OFFSET CHANGED FROM 1 TO 1
OFFSET CHANGED FROM 1 TO 1
OFFSET CHANGED FROM 1 TO 1
OFFSET CHANGED FROM 1 TO 1
OFFSET CHANGED FROM 1 TO 1
OFFSET CHANGED FROM 1 TO 1
OFFSET CHANGED FROM 1 TO 1
OFFSET CHANGED FROM 1 TO 1
OFFSET CHANGED FROM 1 TO 1
OFFSET CHANGED FROM 1 TO 1
OFFSET CHANGED FROM 1 TO 1
OFFSET CHANGED FROM 1 TO 1
OFFSET CHANGED FROM 1 TO 1
OFFSET CHANGED FROM 1 TO 1
OFFSET CHANGED FROM 1 TO 1
OFFSET CHANGED FROM 1 TO 1
OFFSET CHANGED FROM 1 TO 3
OFFSET CHANGED FROM 3 TO 1
OFFSET CHANGED FROM 1 TO 1
OFFSET CHANGED FROM 1 TO 1
OFFSET CHANGED FROM 1 TO 1
OFFSET CHANGED FROM 1 TO 1
OFFSET CHANGED FROM 1 TO 2
OFFSET CHANGED FROM 2 TO 1
OFFSET CHANGED FROM 1 TO 1
OFFSET CHANGED FROM 1 TO 1
OFFSET CHANGED FROM 1 TO 1
OFFSET CHANGED FROM 1 TO 1
OFFSET CHANGED FROM 1 TO 1
OFFSET CHANGED FROM 1 TO 1
OFFSET CHANGED FROM 1 TO 1
OFFSET CHANGED FROM 1 TO 1
OFFSET CHANGED FROM 1 TO 1
OFFSET CHANGED FROM 1 TO 1
OFFSET CHANGED FROM 1 TO 1
OFFSET CHANGED FROM 1 TO 1
OFFSET CHANGED FROM 1 TO 1
OFFSET CHANGED FROM 1 TO 1
OFFSET CHANGED FROM 1 TO 1
OFFSET CHANGED FROM 1 TO 1
OFFSET CHANGED FROM 1 TO 1
OFFSET CHANGED FROM 1 TO 1
OFFSET CHANGED FROM 1 TO 1
OFFSET CHANGED FROM 1 TO 1
OFFSET CHANGED FROM 1 TO 1
OFFSET CHANGED FROM 1 TO 1
OFFSET CHANGED FROM 1 TO 1
OFFSET CHANGED FROM 1 TO 1
OFFSET CHANGED FROM 1 TO 1
OFFSET CHANGED FROM 1 TO 1
OFFSET CHANGED FROM 1 TO 1
OFFSET CHANGED FROM 1 TO 2
OFFSET CHANGED FROM 2 TO 1
OFFSET CHANGED FROM 1 TO 1
OFFSET CHANGED FROM 1 TO 1
OFFSET CHANGED FROM 1 TO 1
OFFSET CHANGED FROM 1 TO 1
OFFSET CHANGED FROM 1 TO 1
OFFSET CHANGED FROM 1 TO 1
OFFSET CHANGED FROM 1 TO 1
OFFSET CHANGED FROM 1 TO 1
OFFSET CHANGED FROM 1 TO 1
OFFSET CHANGED FROM 1 TO 1
OFFSET CHANGED FROM 1 TO 1
OFFSET CHANGED FROM 1 TO 2
OFFSET CHANGED FROM 2 TO 1
Heartbeat CPU 0 instructions: 160000000 cycles: 84382424 heartbeat IPC: 1.68909 cumulative IPC: 1.69893 (Simulation time: 0 hr 8 min 10 sec) 
OFFSET CHANGED FROM 1 TO 1
OFFSET CHANGED FROM 1 TO 1
OFFSET CHANGED FROM 1 TO 1
OFFSET CHANGED FROM 1 TO 3
OFFSET CHANGED FROM 3 TO 2
OFFSET CHANGED FROM 2 TO 1
OFFSET CHANGED FROM 1 TO 1
OFFSET CHANGED FROM 1 TO 1
OFFSET CHANGED FROM 1 TO 1
OFFSET CHANGED FROM 1 TO 1
OFFSET CHANGED FROM 1 TO 3
OFFSET CHANGED FROM 3 TO 2
OFFSET CHANGED FROM 2 TO 3
OFFSET CHANGED FROM 3 TO 1
OFFSET CHANGED FROM 1 TO 1
OFFSET CHANGED FROM 1 TO 1
OFFSET CHANGED FROM 1 TO 1
OFFSET CHANGED FROM 1 TO 2
OFFSET CHANGED FROM 2 TO 1
OFFSET CHANGED FROM 1 TO 3
OFFSET CHANGED FROM 3 TO 2
OFFSET CHANGED FROM 2 TO 1
OFFSET CHANGED FROM 1 TO 1
OFFSET CHANGED FROM 1 TO 1
OFFSET CHANGED FROM 1 TO 2
OFFSET CHANGED FROM 2 TO 1
OFFSET CHANGED FROM 1 TO 1
OFFSET CHANGED FROM 1 TO 1
OFFSET CHANGED FROM 1 TO 1
OFFSET CHANGED FROM 1 TO 3
OFFSET CHANGED FROM 3 TO 5
OFFSET CHANGED FROM 5 TO 1
OFFSET CHANGED FROM 1 TO 2
OFFSET CHANGED FROM 2 TO 2
OFFSET CHANGED FROM 2 TO 1
OFFSET CHANGED FROM 1 TO 1
OFFSET CHANGED FROM 1 TO 1
OFFSET CHANGED FROM 1 TO 1
OFFSET CHANGED FROM 1 TO 1
OFFSET CHANGED FROM 1 TO 1
OFFSET CHANGED FROM 1 TO 1
OFFSET CHANGED FROM 1 TO 1
OFFSET CHANGED FROM 1 TO 1
OFFSET CHANGED FROM 1 TO 1
OFFSET CHANGED FROM 1 TO 1
OFFSET CHANGED FROM 1 TO 1
OFFSET CHANGED FROM 1 TO 1
OFFSET CHANGED FROM 1 TO 2
OFFSET CHANGED FROM 2 TO 1
OFFSET CHANGED FROM 1 TO 1
OFFSET CHANGED FROM 1 TO 1
OFFSET CHANGED FROM 1 TO 1
OFFSET CHANGED FROM 1 TO 1
OFFSET CHANGED FROM 1 TO 1
OFFSET CHANGED FROM 1 TO 2
OFFSET CHANGED FROM 2 TO 1
OFFSET CHANGED FROM 1 TO 1
OFFSET CHANGED FROM 1 TO 1
OFFSET CHANGED FROM 1 TO 1
OFFSET CHANGED FROM 1 TO 1
OFFSET CHANGED FROM 1 TO 1
OFFSET CHANGED FROM 1 TO 1
OFFSET CHANGED FROM 1 TO 1
OFFSET CHANGED FROM 1 TO 1
OFFSET CHANGED FROM 1 TO 1
OFFSET CHANGED FROM 1 TO 2
OFFSET CHANGED FROM 2 TO 1
OFFSET CHANGED FROM 1 TO 1
OFFSET CHANGED FROM 1 TO 1
OFFSET CHANGED FROM 1 TO 1
OFFSET CHANGED FROM 1 TO 1
OFFSET CHANGED FROM 1 TO 1
OFFSET CHANGED FROM 1 TO 1
OFFSET CHANGED FROM 1 TO 1
OFFSET CHANGED FROM 1 TO 3
OFFSET CHANGED FROM 3 TO 1
OFFSET CHANGED FROM 1 TO 1
OFFSET CHANGED FROM 1 TO 1
OFFSET CHANGED FROM 1 TO 1
OFFSET CHANGED FROM 1 TO 1
OFFSET CHANGED FROM 1 TO 1
OFFSET CHANGED FROM 1 TO 1
OFFSET CHANGED FROM 1 TO 1
OFFSET CHANGED FROM 1 TO 2
OFFSET CHANGED FROM 2 TO 1
OFFSET CHANGED FROM 1 TO 1
Heartbeat CPU 0 instructions: 170000003 cycles: 90316998 heartbeat IPC: 1.68504 cumulative IPC: 1.69777 (Simulation time: 0 hr 8 min 43 sec) 
OFFSET CHANGED FROM 1 TO 1
OFFSET CHANGED FROM 1 TO 2
OFFSET CHANGED FROM 2 TO 1
OFFSET CHANGED FROM 1 TO 1
OFFSET CHANGED FROM 1 TO 1
OFFSET CHANGED FROM 1 TO 1
OFFSET CHANGED FROM 1 TO 1
OFFSET CHANGED FROM 1 TO 2
OFFSET CHANGED FROM 2 TO 1
OFFSET CHANGED FROM 1 TO 1
OFFSET CHANGED FROM 1 TO 1
OFFSET CHANGED FROM 1 TO 1
OFFSET CHANGED FROM 1 TO 1
OFFSET CHANGED FROM 1 TO 1
OFFSET CHANGED FROM 1 TO 1
OFFSET CHANGED FROM 1 TO 1
OFFSET CHANGED FROM 1 TO 1
OFFSET CHANGED FROM 1 TO 1
OFFSET CHANGED FROM 1 TO 1
OFFSET CHANGED FROM 1 TO 2
OFFSET CHANGED FROM 2 TO 1
OFFSET CHANGED FROM 1 TO 1
OFFSET CHANGED FROM 1 TO 1
OFFSET CHANGED FROM 1 TO 1
OFFSET CHANGED FROM 1 TO 1
OFFSET CHANGED FROM 1 TO 1
OFFSET CHANGED FROM 1 TO 1
OFFSET CHANGED FROM 1 TO 1
OFFSET CHANGED FROM 1 TO 1
OFFSET CHANGED FROM 1 TO 1
OFFSET CHANGED FROM 1 TO 1
OFFSET CHANGED FROM 1 TO 1
OFFSET CHANGED FROM 1 TO 1
OFFSET CHANGED FROM 1 TO 1
OFFSET CHANGED FROM 1 TO 1
OFFSET CHANGED FROM 1 TO 1
OFFSET CHANGED FROM 1 TO 1
OFFSET CHANGED FROM 1 TO 1
OFFSET CHANGED FROM 1 TO 2
OFFSET CHANGED FROM 2 TO 2
OFFSET CHANGED FROM 2 TO 1
OFFSET CHANGED FROM 1 TO 1
OFFSET CHANGED FROM 1 TO 1
OFFSET CHANGED FROM 1 TO 2
OFFSET CHANGED FROM 2 TO 1
OFFSET CHANGED FROM 1 TO 1
OFFSET CHANGED FROM 1 TO 1
OFFSET CHANGED FROM 1 TO 1
OFFSET CHANGED FROM 1 TO 1
OFFSET CHANGED FROM 1 TO 1
OFFSET CHANGED FROM 1 TO 1
OFFSET CHANGED FROM 1 TO 1
OFFSET CHANGED FROM 1 TO 1
OFFSET CHANGED FROM 1 TO 1
OFFSET CHANGED FROM 1 TO 2
OFFSET CHANGED FROM 2 TO 3
OFFSET CHANGED FROM 3 TO 1
OFFSET CHANGED FROM 1 TO 1
OFFSET CHANGED FROM 1 TO 1
OFFSET CHANGED FROM 1 TO 1
OFFSET CHANGED FROM 1 TO 1
OFFSET CHANGED FROM 1 TO 3
OFFSET CHANGED FROM 3 TO 1
OFFSET CHANGED FROM 1 TO 1
OFFSET CHANGED FROM 1 TO 1
OFFSET CHANGED FROM 1 TO 1
OFFSET CHANGED FROM 1 TO 1
OFFSET CHANGED FROM 1 TO 1
OFFSET CHANGED FROM 1 TO 1
OFFSET CHANGED FROM 1 TO 1
OFFSET CHANGED FROM 1 TO 1
OFFSET CHANGED FROM 1 TO 1
OFFSET CHANGED FROM 1 TO 1
OFFSET CHANGED FROM 1 TO 3
OFFSET CHANGED FROM 3 TO 1
OFFSET CHANGED FROM 1 TO 1
OFFSET CHANGED FROM 1 TO 1
OFFSET CHANGED FROM 1 TO 1
OFFSET CHANGED FROM 1 TO 1
OFFSET CHANGED FROM 1 TO 1
OFFSET CHANGED FROM 1 TO 1
OFFSET CHANGED FROM 1 TO 1
OFFSET CHANGED FROM 1 TO 1
OFFSET CHANGED FROM 1 TO 3
OFFSET CHANGED FROM 3 TO 3
Heartbeat CPU 0 instructions: 180000001 cycles: 96220321 heartbeat IPC: 1.69396 cumulative IPC: 1.69747 (Simulation time: 0 hr 9 min 14 sec) 
OFFSET CHANGED FROM 3 TO 1
OFFSET CHANGED FROM 1 TO 1
OFFSET CHANGED FROM 1 TO 2
OFFSET CHANGED FROM 2 TO 1
OFFSET CHANGED FROM 1 TO 1
OFFSET CHANGED FROM 1 TO 1
OFFSET CHANGED FROM 1 TO 1
OFFSET CHANGED FROM 1 TO 1
OFFSET CHANGED FROM 1 TO 1
OFFSET CHANGED FROM 1 TO 1
OFFSET CHANGED FROM 1 TO 1
OFFSET CHANGED FROM 1 TO 1
OFFSET CHANGED FROM 1 TO 1
OFFSET CHANGED FROM 1 TO 1
OFFSET CHANGED FROM 1 TO 1
OFFSET CHANGED FROM 1 TO 1
OFFSET CHANGED FROM 1 TO 4
OFFSET CHANGED FROM 4 TO 1
OFFSET CHANGED FROM 1 TO 1
OFFSET CHANGED FROM 1 TO 1
OFFSET CHANGED FROM 1 TO 1
OFFSET CHANGED FROM 1 TO 1
OFFSET CHANGED FROM 1 TO 1
OFFSET CHANGED FROM 1 TO 2
OFFSET CHANGED FROM 2 TO 1
OFFSET CHANGED FROM 1 TO 1
OFFSET CHANGED FROM 1 TO 1
OFFSET CHANGED FROM 1 TO 1
OFFSET CHANGED FROM 1 TO 1
OFFSET CHANGED FROM 1 TO 1
OFFSET CHANGED FROM 1 TO 3
OFFSET CHANGED FROM 3 TO 1
OFFSET CHANGED FROM 1 TO 1
OFFSET CHANGED FROM 1 TO 1
OFFSET CHANGED FROM 1 TO 1
OFFSET CHANGED FROM 1 TO 1
OFFSET CHANGED FROM 1 TO 1
OFFSET CHANGED FROM 1 TO 2
OFFSET CHANGED FROM 2 TO 1
OFFSET CHANGED FROM 1 TO 1
OFFSET CHANGED FROM 1 TO 3
OFFSET CHANGED FROM 3 TO 1
OFFSET CHANGED FROM 1 TO 1
OFFSET CHANGED FROM 1 TO 2
OFFSET CHANGED FROM 2 TO 1
OFFSET CHANGED FROM 1 TO 1
OFFSET CHANGED FROM 1 TO 1
OFFSET CHANGED FROM 1 TO 1
OFFSET CHANGED FROM 1 TO 1
OFFSET CHANGED FROM 1 TO 1
OFFSET CHANGED FROM 1 TO 2
OFFSET CHANGED FROM 2 TO 1
OFFSET CHANGED FROM 1 TO 1
OFFSET CHANGED FROM 1 TO 1
OFFSET CHANGED FROM 1 TO 1
OFFSET CHANGED FROM 1 TO 1
OFFSET CHANGED FROM 1 TO 1
OFFSET CHANGED FROM 1 TO 1
OFFSET CHANGED FROM 1 TO 2
OFFSET CHANGED FROM 2 TO 1
OFFSET CHANGED FROM 1 TO 1
OFFSET CHANGED FROM 1 TO 1
OFFSET CHANGED FROM 1 TO 1
OFFSET CHANGED FROM 1 TO 2
OFFSET CHANGED FROM 2 TO 1
OFFSET CHANGED FROM 1 TO 1
OFFSET CHANGED FROM 1 TO 1
OFFSET CHANGED FROM 1 TO 1
OFFSET CHANGED FROM 1 TO 1
OFFSET CHANGED FROM 1 TO 1
OFFSET CHANGED FROM 1 TO 1
OFFSET CHANGED FROM 1 TO 1
OFFSET CHANGED FROM 1 TO 2
OFFSET CHANGED FROM 2 TO 2
OFFSET CHANGED FROM 2 TO 1
OFFSET CHANGED FROM 1 TO 1
OFFSET CHANGED FROM 1 TO 1
OFFSET CHANGED FROM 1 TO 1
OFFSET CHANGED FROM 1 TO 1
OFFSET CHANGED FROM 1 TO 1
OFFSET CHANGED FROM 1 TO 1
OFFSET CHANGED FROM 1 TO 1
OFFSET CHANGED FROM 1 TO 1
OFFSET CHANGED FROM 1 TO 1
OFFSET CHANGED FROM 1 TO 1
OFFSET CHANGED FROM 1 TO 2
Heartbeat CPU 0 instructions: 190000002 cycles: 102145240 heartbeat IPC: 1.68779 cumulative IPC: 1.69678 (Simulation time: 0 hr 9 min 46 sec) 
OFFSET CHANGED FROM 2 TO 1
OFFSET CHANGED FROM 1 TO 1
OFFSET CHANGED FROM 1 TO 1
OFFSET CHANGED FROM 1 TO 1
OFFSET CHANGED FROM 1 TO 1
OFFSET CHANGED FROM 1 TO 1
OFFSET CHANGED FROM 1 TO 1
OFFSET CHANGED FROM 1 TO 1
OFFSET CHANGED FROM 1 TO 1
OFFSET CHANGED FROM 1 TO 1
OFFSET CHANGED FROM 1 TO 1
OFFSET CHANGED FROM 1 TO 1
OFFSET CHANGED FROM 1 TO 1
OFFSET CHANGED FROM 1 TO 1
OFFSET CHANGED FROM 1 TO 1
OFFSET CHANGED FROM 1 TO 1
OFFSET CHANGED FROM 1 TO 1
OFFSET CHANGED FROM 1 TO 1
OFFSET CHANGED FROM 1 TO 1
OFFSET CHANGED FROM 1 TO 1
OFFSET CHANGED FROM 1 TO 1
OFFSET CHANGED FROM 1 TO 2
OFFSET CHANGED FROM 2 TO 2
OFFSET CHANGED FROM 2 TO 1
OFFSET CHANGED FROM 1 TO 1
OFFSET CHANGED FROM 1 TO 1
OFFSET CHANGED FROM 1 TO 2
OFFSET CHANGED FROM 2 TO 1
OFFSET CHANGED FROM 1 TO 1
OFFSET CHANGED FROM 1 TO 1
OFFSET CHANGED FROM 1 TO 1
OFFSET CHANGED FROM 1 TO 3
OFFSET CHANGED FROM 3 TO 1
OFFSET CHANGED FROM 1 TO 3
OFFSET CHANGED FROM 3 TO 1
OFFSET CHANGED FROM 1 TO 2
OFFSET CHANGED FROM 2 TO 1
OFFSET CHANGED FROM 1 TO 1
OFFSET CHANGED FROM 1 TO 2
OFFSET CHANGED FROM 2 TO 1
OFFSET CHANGED FROM 1 TO 1
OFFSET CHANGED FROM 1 TO 1
OFFSET CHANGED FROM 1 TO 1
OFFSET CHANGED FROM 1 TO 1
OFFSET CHANGED FROM 1 TO 1
OFFSET CHANGED FROM 1 TO 2
OFFSET CHANGED FROM 2 TO 1
OFFSET CHANGED FROM 1 TO 1
OFFSET CHANGED FROM 1 TO 1
OFFSET CHANGED FROM 1 TO 1
OFFSET CHANGED FROM 1 TO 1
OFFSET CHANGED FROM 1 TO 1
OFFSET CHANGED FROM 1 TO 1
OFFSET CHANGED FROM 1 TO 1
OFFSET CHANGED FROM 1 TO 1
OFFSET CHANGED FROM 1 TO 1
OFFSET CHANGED FROM 1 TO 1
OFFSET CHANGED FROM 1 TO 1
OFFSET CHANGED FROM 1 TO 1
OFFSET CHANGED FROM 1 TO 2
OFFSET CHANGED FROM 2 TO 3
OFFSET CHANGED FROM 3 TO 1
OFFSET CHANGED FROM 1 TO 3
OFFSET CHANGED FROM 3 TO 1
OFFSET CHANGED FROM 1 TO 1
OFFSET CHANGED FROM 1 TO 1
OFFSET CHANGED FROM 1 TO 1
OFFSET CHANGED FROM 1 TO 1
OFFSET CHANGED FROM 1 TO 2
OFFSET CHANGED FROM 2 TO 1
OFFSET CHANGED FROM 1 TO 1
OFFSET CHANGED FROM 1 TO 1
OFFSET CHANGED FROM 1 TO 1
OFFSET CHANGED FROM 1 TO 1
OFFSET CHANGED FROM 1 TO 2
OFFSET CHANGED FROM 2 TO 4
OFFSET CHANGED FROM 4 TO 1
OFFSET CHANGED FROM 1 TO 2
OFFSET CHANGED FROM 2 TO 3
OFFSET CHANGED FROM 3 TO 1
OFFSET CHANGED FROM 1 TO 1
OFFSET CHANGED FROM 1 TO 1
OFFSET CHANGED FROM 1 TO 1
OFFSET CHANGED FROM 1 TO 1
OFFSET CHANGED FROM 1 TO 1
Heartbeat CPU 0 instructions: 200000001 cycles: 108080074 heartbeat IPC: 1.68497 cumulative IPC: 1.69598 (Simulation time: 0 hr 10 min 17 sec) 
OFFSET CHANGED FROM 1 TO 1
OFFSET CHANGED FROM 1 TO 1
OFFSET CHANGED FROM 1 TO 1
OFFSET CHANGED FROM 1 TO 1
OFFSET CHANGED FROM 1 TO 1
OFFSET CHANGED FROM 1 TO 2
OFFSET CHANGED FROM 2 TO 2
OFFSET CHANGED FROM 2 TO 1
OFFSET CHANGED FROM 1 TO 1
OFFSET CHANGED FROM 1 TO 1
OFFSET CHANGED FROM 1 TO 1
OFFSET CHANGED FROM 1 TO 1
OFFSET CHANGED FROM 1 TO 2
OFFSET CHANGED FROM 2 TO 4
OFFSET CHANGED FROM 4 TO 1
OFFSET CHANGED FROM 1 TO 1
OFFSET CHANGED FROM 1 TO 1
OFFSET CHANGED FROM 1 TO 1
OFFSET CHANGED FROM 1 TO 1
OFFSET CHANGED FROM 1 TO 1
OFFSET CHANGED FROM 1 TO 1
OFFSET CHANGED FROM 1 TO 1
OFFSET CHANGED FROM 1 TO 1
OFFSET CHANGED FROM 1 TO 1
OFFSET CHANGED FROM 1 TO 1
OFFSET CHANGED FROM 1 TO 1
OFFSET CHANGED FROM 1 TO 1
OFFSET CHANGED FROM 1 TO 1
OFFSET CHANGED FROM 1 TO 1
OFFSET CHANGED FROM 1 TO 1
OFFSET CHANGED FROM 1 TO 1
OFFSET CHANGED FROM 1 TO 1
OFFSET CHANGED FROM 1 TO 2
OFFSET CHANGED FROM 2 TO 1
OFFSET CHANGED FROM 1 TO 1
OFFSET CHANGED FROM 1 TO 1
OFFSET CHANGED FROM 1 TO 1
OFFSET CHANGED FROM 1 TO 2
OFFSET CHANGED FROM 2 TO 1
OFFSET CHANGED FROM 1 TO 1
OFFSET CHANGED FROM 1 TO 1
OFFSET CHANGED FROM 1 TO 1
OFFSET CHANGED FROM 1 TO 1
OFFSET CHANGED FROM 1 TO 1
OFFSET CHANGED FROM 1 TO 1
OFFSET CHANGED FROM 1 TO 1
OFFSET CHANGED FROM 1 TO 1
OFFSET CHANGED FROM 1 TO 1
OFFSET CHANGED FROM 1 TO 1
OFFSET CHANGED FROM 1 TO 1
OFFSET CHANGED FROM 1 TO 1
OFFSET CHANGED FROM 1 TO 1
OFFSET CHANGED FROM 1 TO 1
OFFSET CHANGED FROM 1 TO 1
OFFSET CHANGED FROM 1 TO 1
OFFSET CHANGED FROM 1 TO 1
OFFSET CHANGED FROM 1 TO 1
OFFSET CHANGED FROM 1 TO 3
OFFSET CHANGED FROM 3 TO 1
OFFSET CHANGED FROM 1 TO 2
OFFSET CHANGED FROM 2 TO 1
OFFSET CHANGED FROM 1 TO 3
OFFSET CHANGED FROM 3 TO 2
OFFSET CHANGED FROM 2 TO 1
OFFSET CHANGED FROM 1 TO 1
OFFSET CHANGED FROM 1 TO 1
OFFSET CHANGED FROM 1 TO 1
OFFSET CHANGED FROM 1 TO 2
OFFSET CHANGED FROM 2 TO 1
OFFSET CHANGED FROM 1 TO 1
OFFSET CHANGED FROM 1 TO 3
OFFSET CHANGED FROM 3 TO 5
OFFSET CHANGED FROM 5 TO 1
OFFSET CHANGED FROM 1 TO 1
OFFSET CHANGED FROM 1 TO 1
OFFSET CHANGED FROM 1 TO 1
OFFSET CHANGED FROM 1 TO 1
OFFSET CHANGED FROM 1 TO 1
OFFSET CHANGED FROM 1 TO 2
OFFSET CHANGED FROM 2 TO 1
OFFSET CHANGED FROM 1 TO 2
OFFSET CHANGED FROM 2 TO 1
OFFSET CHANGED FROM 1 TO 1
OFFSET CHANGED FROM 1 TO 1
OFFSET CHANGED FROM 1 TO 3
OFFSET CHANGED FROM 3 TO 1
Heartbeat CPU 0 instructions: 210000000 cycles: 113998672 heartbeat IPC: 1.68959 cumulative IPC: 1.69558 (Simulation time: 0 hr 10 min 48 sec) 
OFFSET CHANGED FROM 1 TO 1
OFFSET CHANGED FROM 1 TO 1
OFFSET CHANGED FROM 1 TO 1
OFFSET CHANGED FROM 1 TO 1
OFFSET CHANGED FROM 1 TO 1
OFFSET CHANGED FROM 1 TO 1
OFFSET CHANGED FROM 1 TO 1
OFFSET CHANGED FROM 1 TO 1
OFFSET CHANGED FROM 1 TO 2
OFFSET CHANGED FROM 2 TO 1
OFFSET CHANGED FROM 1 TO 1
OFFSET CHANGED FROM 1 TO 1
OFFSET CHANGED FROM 1 TO 1
OFFSET CHANGED FROM 1 TO 1
OFFSET CHANGED FROM 1 TO 1
OFFSET CHANGED FROM 1 TO 1
OFFSET CHANGED FROM 1 TO 3
OFFSET CHANGED FROM 3 TO 1
OFFSET CHANGED FROM 1 TO 1
OFFSET CHANGED FROM 1 TO 1
OFFSET CHANGED FROM 1 TO 1
OFFSET CHANGED FROM 1 TO 2
OFFSET CHANGED FROM 2 TO 1
OFFSET CHANGED FROM 1 TO 1
OFFSET CHANGED FROM 1 TO 1
OFFSET CHANGED FROM 1 TO 1
OFFSET CHANGED FROM 1 TO 1
OFFSET CHANGED FROM 1 TO 1
OFFSET CHANGED FROM 1 TO 1
OFFSET CHANGED FROM 1 TO 2
OFFSET CHANGED FROM 2 TO 6
OFFSET CHANGED FROM 6 TO 3
OFFSET CHANGED FROM 3 TO 2
OFFSET CHANGED FROM 2 TO 1
OFFSET CHANGED FROM 1 TO 1
OFFSET CHANGED FROM 1 TO 1
OFFSET CHANGED FROM 1 TO 1
OFFSET CHANGED FROM 1 TO 1
OFFSET CHANGED FROM 1 TO 1
OFFSET CHANGED FROM 1 TO 1
OFFSET CHANGED FROM 1 TO 3
OFFSET CHANGED FROM 3 TO 1
OFFSET CHANGED FROM 1 TO 2
OFFSET CHANGED FROM 2 TO 1
OFFSET CHANGED FROM 1 TO 1
OFFSET CHANGED FROM 1 TO 1
OFFSET CHANGED FROM 1 TO 1
OFFSET CHANGED FROM 1 TO 1
OFFSET CHANGED FROM 1 TO 2
OFFSET CHANGED FROM 2 TO 2
OFFSET CHANGED FROM 2 TO 1
OFFSET CHANGED FROM 1 TO 1
OFFSET CHANGED FROM 1 TO 5
OFFSET CHANGED FROM 5 TO 1
OFFSET CHANGED FROM 1 TO 1
OFFSET CHANGED FROM 1 TO 1
OFFSET CHANGED FROM 1 TO 1
OFFSET CHANGED FROM 1 TO 2
OFFSET CHANGED FROM 2 TO 1
OFFSET CHANGED FROM 1 TO 1
OFFSET CHANGED FROM 1 TO 1
OFFSET CHANGED FROM 1 TO 1
OFFSET CHANGED FROM 1 TO 1
OFFSET CHANGED FROM 1 TO 1
OFFSET CHANGED FROM 1 TO 1
OFFSET CHANGED FROM 1 TO 2
OFFSET CHANGED FROM 2 TO 1
OFFSET CHANGED FROM 1 TO 1
OFFSET CHANGED FROM 1 TO 2
OFFSET CHANGED FROM 2 TO 1
OFFSET CHANGED FROM 1 TO 1
OFFSET CHANGED FROM 1 TO 1
OFFSET CHANGED FROM 1 TO 1
OFFSET CHANGED FROM 1 TO 1
OFFSET CHANGED FROM 1 TO 2
OFFSET CHANGED FROM 2 TO 1
OFFSET CHANGED FROM 1 TO 1
OFFSET CHANGED FROM 1 TO 1
OFFSET CHANGED FROM 1 TO 1
OFFSET CHANGED FROM 1 TO 1
OFFSET CHANGED FROM 1 TO 1
OFFSET CHANGED FROM 1 TO 1
OFFSET CHANGED FROM 1 TO 2
OFFSET CHANGED FROM 2 TO 1
OFFSET CHANGED FROM 1 TO 2
OFFSET CHANGED FROM 2 TO 1
OFFSET CHANGED FROM 1 TO 1
Heartbeat CPU 0 instructions: 220000000 cycles: 119927967 heartbeat IPC: 1.68654 cumulative IPC: 1.69505 (Simulation time: 0 hr 11 min 20 sec) 
OFFSET CHANGED FROM 1 TO 1
OFFSET CHANGED FROM 1 TO 1
OFFSET CHANGED FROM 1 TO 1
OFFSET CHANGED FROM 1 TO 1
OFFSET CHANGED FROM 1 TO 1
OFFSET CHANGED FROM 1 TO 1
OFFSET CHANGED FROM 1 TO 1
OFFSET CHANGED FROM 1 TO 1
OFFSET CHANGED FROM 1 TO 1
OFFSET CHANGED FROM 1 TO 1
OFFSET CHANGED FROM 1 TO 1
OFFSET CHANGED FROM 1 TO 1
OFFSET CHANGED FROM 1 TO 1
OFFSET CHANGED FROM 1 TO 1
OFFSET CHANGED FROM 1 TO 2
OFFSET CHANGED FROM 2 TO 1
OFFSET CHANGED FROM 1 TO 1
OFFSET CHANGED FROM 1 TO 1
OFFSET CHANGED FROM 1 TO 1
OFFSET CHANGED FROM 1 TO 1
OFFSET CHANGED FROM 1 TO 1
OFFSET CHANGED FROM 1 TO 1
OFFSET CHANGED FROM 1 TO 1
OFFSET CHANGED FROM 1 TO 1
OFFSET CHANGED FROM 1 TO 1
OFFSET CHANGED FROM 1 TO 1
OFFSET CHANGED FROM 1 TO 1
OFFSET CHANGED FROM 1 TO 2
OFFSET CHANGED FROM 2 TO 1
OFFSET CHANGED FROM 1 TO 1
OFFSET CHANGED FROM 1 TO 1
OFFSET CHANGED FROM 1 TO 1
OFFSET CHANGED FROM 1 TO 1
OFFSET CHANGED FROM 1 TO 1
OFFSET CHANGED FROM 1 TO 1
OFFSET CHANGED FROM 1 TO 1
OFFSET CHANGED FROM 1 TO 1
OFFSET CHANGED FROM 1 TO 4
OFFSET CHANGED FROM 4 TO 3
OFFSET CHANGED FROM 3 TO 1
OFFSET CHANGED FROM 1 TO 2
OFFSET CHANGED FROM 2 TO 3
OFFSET CHANGED FROM 3 TO 2
OFFSET CHANGED FROM 2 TO 3
OFFSET CHANGED FROM 3 TO 2
OFFSET CHANGED FROM 2 TO 1
OFFSET CHANGED FROM 1 TO 2
OFFSET CHANGED FROM 2 TO 1
OFFSET CHANGED FROM 1 TO 1
OFFSET CHANGED FROM 1 TO 2
OFFSET CHANGED FROM 2 TO 1
OFFSET CHANGED FROM 1 TO 1
OFFSET CHANGED FROM 1 TO 1
OFFSET CHANGED FROM 1 TO 1
OFFSET CHANGED FROM 1 TO 1
OFFSET CHANGED FROM 1 TO 1
OFFSET CHANGED FROM 1 TO 1
OFFSET CHANGED FROM 1 TO 1
OFFSET CHANGED FROM 1 TO 1
OFFSET CHANGED FROM 1 TO 1
OFFSET CHANGED FROM 1 TO 1
OFFSET CHANGED FROM 1 TO 1
OFFSET CHANGED FROM 1 TO 2
OFFSET CHANGED FROM 2 TO 3
OFFSET CHANGED FROM 3 TO 3
OFFSET CHANGED FROM 3 TO 1
OFFSET CHANGED FROM 1 TO 1
OFFSET CHANGED FROM 1 TO 1
OFFSET CHANGED FROM 1 TO 1
OFFSET CHANGED FROM 1 TO 1
OFFSET CHANGED FROM 1 TO 1
OFFSET CHANGED FROM 1 TO 1
OFFSET CHANGED FROM 1 TO 1
OFFSET CHANGED FROM 1 TO 1
OFFSET CHANGED FROM 1 TO 1
OFFSET CHANGED FROM 1 TO 1
OFFSET CHANGED FROM 1 TO 1
OFFSET CHANGED FROM 1 TO 6
OFFSET CHANGED FROM 6 TO 2
OFFSET CHANGED FROM 2 TO 1
OFFSET CHANGED FROM 1 TO 1
OFFSET CHANGED FROM 1 TO 1
OFFSET CHANGED FROM 1 TO 3
OFFSET CHANGED FROM 3 TO 1
OFFSET CHANGED FROM 1 TO 1
Heartbeat CPU 0 instructions: 230000000 cycles: 125891172 heartbeat IPC: 1.67695 cumulative IPC: 1.69403 (Simulation time: 0 hr 11 min 51 sec) 
OFFSET CHANGED FROM 1 TO 1
OFFSET CHANGED FROM 1 TO 1
OFFSET CHANGED FROM 1 TO 3
OFFSET CHANGED FROM 3 TO 1
OFFSET CHANGED FROM 1 TO 1
OFFSET CHANGED FROM 1 TO 1
OFFSET CHANGED FROM 1 TO 1
OFFSET CHANGED FROM 1 TO 1
OFFSET CHANGED FROM 1 TO 4
OFFSET CHANGED FROM 4 TO 2
OFFSET CHANGED FROM 2 TO 1
OFFSET CHANGED FROM 1 TO 1
OFFSET CHANGED FROM 1 TO 1
OFFSET CHANGED FROM 1 TO 1
OFFSET CHANGED FROM 1 TO 1
OFFSET CHANGED FROM 1 TO 1
OFFSET CHANGED FROM 1 TO 1
OFFSET CHANGED FROM 1 TO 1
OFFSET CHANGED FROM 1 TO 1
OFFSET CHANGED FROM 1 TO 1
OFFSET CHANGED FROM 1 TO 1
OFFSET CHANGED FROM 1 TO 2
OFFSET CHANGED FROM 2 TO 1
OFFSET CHANGED FROM 1 TO 2
OFFSET CHANGED FROM 2 TO 1
OFFSET CHANGED FROM 1 TO 2
OFFSET CHANGED FROM 2 TO 1
OFFSET CHANGED FROM 1 TO 1
OFFSET CHANGED FROM 1 TO 2
OFFSET CHANGED FROM 2 TO 4
OFFSET CHANGED FROM 4 TO 5
OFFSET CHANGED FROM 5 TO 1
OFFSET CHANGED FROM 1 TO 1
OFFSET CHANGED FROM 1 TO 1
OFFSET CHANGED FROM 1 TO 1
OFFSET CHANGED FROM 1 TO 1
OFFSET CHANGED FROM 1 TO 1
OFFSET CHANGED FROM 1 TO 1
OFFSET CHANGED FROM 1 TO 1
OFFSET CHANGED FROM 1 TO 2
OFFSET CHANGED FROM 2 TO 1
OFFSET CHANGED FROM 1 TO 1
OFFSET CHANGED FROM 1 TO 1
OFFSET CHANGED FROM 1 TO 1
OFFSET CHANGED FROM 1 TO 1
OFFSET CHANGED FROM 1 TO 1
OFFSET CHANGED FROM 1 TO 2
OFFSET CHANGED FROM 2 TO 1
OFFSET CHANGED FROM 1 TO 1
OFFSET CHANGED FROM 1 TO 1
OFFSET CHANGED FROM 1 TO 1
OFFSET CHANGED FROM 1 TO 1
OFFSET CHANGED FROM 1 TO 1
OFFSET CHANGED FROM 1 TO 1
OFFSET CHANGED FROM 1 TO 1
OFFSET CHANGED FROM 1 TO 1
OFFSET CHANGED FROM 1 TO 1
OFFSET CHANGED FROM 1 TO 1
OFFSET CHANGED FROM 1 TO 3
OFFSET CHANGED FROM 3 TO 2
OFFSET CHANGED FROM 2 TO 1
OFFSET CHANGED FROM 1 TO 1
OFFSET CHANGED FROM 1 TO 1
OFFSET CHANGED FROM 1 TO 2
OFFSET CHANGED FROM 2 TO 2
OFFSET CHANGED FROM 2 TO 1
OFFSET CHANGED FROM 1 TO 1
OFFSET CHANGED FROM 1 TO 1
OFFSET CHANGED FROM 1 TO 1
OFFSET CHANGED FROM 1 TO 2
OFFSET CHANGED FROM 2 TO 1
OFFSET CHANGED FROM 1 TO 1
OFFSET CHANGED FROM 1 TO 1
OFFSET CHANGED FROM 1 TO 1
OFFSET CHANGED FROM 1 TO 1
OFFSET CHANGED FROM 1 TO 1
OFFSET CHANGED FROM 1 TO 1
OFFSET CHANGED FROM 1 TO 1
OFFSET CHANGED FROM 1 TO 1
OFFSET CHANGED FROM 1 TO 2
OFFSET CHANGED FROM 2 TO 2
OFFSET CHANGED FROM 2 TO 1
OFFSET CHANGED FROM 1 TO 1
OFFSET CHANGED FROM 1 TO 1
OFFSET CHANGED FROM 1 TO 1
OFFSET CHANGED FROM 1 TO 1
OFFSET CHANGED FROM 1 TO 1
Heartbeat CPU 0 instructions: 240000001 cycles: 131819467 heartbeat IPC: 1.68683 cumulative IPC: 1.69365 (Simulation time: 0 hr 12 min 23 sec) 
OFFSET CHANGED FROM 1 TO 1
OFFSET CHANGED FROM 1 TO 1
OFFSET CHANGED FROM 1 TO 2
OFFSET CHANGED FROM 2 TO 1
OFFSET CHANGED FROM 1 TO 1
OFFSET CHANGED FROM 1 TO 1
OFFSET CHANGED FROM 1 TO 5
OFFSET CHANGED FROM 5 TO 1
OFFSET CHANGED FROM 1 TO 1
OFFSET CHANGED FROM 1 TO 1
OFFSET CHANGED FROM 1 TO 1
OFFSET CHANGED FROM 1 TO 2
OFFSET CHANGED FROM 2 TO 3
OFFSET CHANGED FROM 3 TO 1
OFFSET CHANGED FROM 1 TO 1
OFFSET CHANGED FROM 1 TO 1
OFFSET CHANGED FROM 1 TO 2
OFFSET CHANGED FROM 2 TO 1
OFFSET CHANGED FROM 1 TO 1
OFFSET CHANGED FROM 1 TO 1
OFFSET CHANGED FROM 1 TO 1
OFFSET CHANGED FROM 1 TO 1
OFFSET CHANGED FROM 1 TO 1
OFFSET CHANGED FROM 1 TO 1
OFFSET CHANGED FROM 1 TO 1
OFFSET CHANGED FROM 1 TO 1
OFFSET CHANGED FROM 1 TO 1
OFFSET CHANGED FROM 1 TO 1
OFFSET CHANGED FROM 1 TO 1
OFFSET CHANGED FROM 1 TO 1
OFFSET CHANGED FROM 1 TO 2
OFFSET CHANGED FROM 2 TO 2
OFFSET CHANGED FROM 2 TO 2
OFFSET CHANGED FROM 2 TO 1
OFFSET CHANGED FROM 1 TO 1
OFFSET CHANGED FROM 1 TO 1
OFFSET CHANGED FROM 1 TO 1
OFFSET CHANGED FROM 1 TO 1
OFFSET CHANGED FROM 1 TO 1
OFFSET CHANGED FROM 1 TO 1
OFFSET CHANGED FROM 1 TO 1
OFFSET CHANGED FROM 1 TO 1
OFFSET CHANGED FROM 1 TO 1
OFFSET CHANGED FROM 1 TO 1
OFFSET CHANGED FROM 1 TO 1
OFFSET CHANGED FROM 1 TO 1
OFFSET CHANGED FROM 1 TO 1
OFFSET CHANGED FROM 1 TO 1
OFFSET CHANGED FROM 1 TO 1
OFFSET CHANGED FROM 1 TO 1
OFFSET CHANGED FROM 1 TO 1
OFFSET CHANGED FROM 1 TO 1
OFFSET CHANGED FROM 1 TO 2
OFFSET CHANGED FROM 2 TO 1
OFFSET CHANGED FROM 1 TO 1
OFFSET CHANGED FROM 1 TO 3
OFFSET CHANGED FROM 3 TO 1
OFFSET CHANGED FROM 1 TO 1
OFFSET CHANGED FROM 1 TO 2
OFFSET CHANGED FROM 2 TO 2
OFFSET CHANGED FROM 2 TO 1
OFFSET CHANGED FROM 1 TO 2
OFFSET CHANGED FROM 2 TO 1
OFFSET CHANGED FROM 1 TO 1
OFFSET CHANGED FROM 1 TO 1
OFFSET CHANGED FROM 1 TO 1
OFFSET CHANGED FROM 1 TO 1
OFFSET CHANGED FROM 1 TO 1
OFFSET CHANGED FROM 1 TO 1
OFFSET CHANGED FROM 1 TO 1
OFFSET CHANGED FROM 1 TO 1
OFFSET CHANGED FROM 1 TO 2
OFFSET CHANGED FROM 2 TO 1
OFFSET CHANGED FROM 1 TO 2
OFFSET CHANGED FROM 2 TO 2
OFFSET CHANGED FROM 2 TO 1
OFFSET CHANGED FROM 1 TO 2
OFFSET CHANGED FROM 2 TO 1
OFFSET CHANGED FROM 1 TO 1
OFFSET CHANGED FROM 1 TO 1
OFFSET CHANGED FROM 1 TO 1
OFFSET CHANGED FROM 1 TO 1
OFFSET CHANGED FROM 1 TO 1
OFFSET CHANGED FROM 1 TO 1
OFFSET CHANGED FROM 1 TO 2
Heartbeat CPU 0 instructions: 250000001 cycles: 137719198 heartbeat IPC: 1.69499 cumulative IPC: 1.69372 (Simulation time: 0 hr 12 min 54 sec) 
OFFSET CHANGED FROM 2 TO 1
OFFSET CHANGED FROM 1 TO 1
OFFSET CHANGED FROM 1 TO 1
OFFSET CHANGED FROM 1 TO 1
OFFSET CHANGED FROM 1 TO 1
OFFSET CHANGED FROM 1 TO 1
OFFSET CHANGED FROM 1 TO 1
OFFSET CHANGED FROM 1 TO 1
OFFSET CHANGED FROM 1 TO 3
OFFSET CHANGED FROM 3 TO 3
OFFSET CHANGED FROM 3 TO 1
OFFSET CHANGED FROM 1 TO 1
OFFSET CHANGED FROM 1 TO 1
OFFSET CHANGED FROM 1 TO 1
OFFSET CHANGED FROM 1 TO 1
OFFSET CHANGED FROM 1 TO 1
OFFSET CHANGED FROM 1 TO 1
OFFSET CHANGED FROM 1 TO 1
OFFSET CHANGED FROM 1 TO 1
OFFSET CHANGED FROM 1 TO 1
OFFSET CHANGED FROM 1 TO 1
OFFSET CHANGED FROM 1 TO 1
OFFSET CHANGED FROM 1 TO 1
OFFSET CHANGED FROM 1 TO 3
OFFSET CHANGED FROM 3 TO 1
OFFSET CHANGED FROM 1 TO 1
OFFSET CHANGED FROM 1 TO 1
OFFSET CHANGED FROM 1 TO 1
OFFSET CHANGED FROM 1 TO 1
OFFSET CHANGED FROM 1 TO 1
OFFSET CHANGED FROM 1 TO 1
OFFSET CHANGED FROM 1 TO 1
OFFSET CHANGED FROM 1 TO 1
OFFSET CHANGED FROM 1 TO 2
OFFSET CHANGED FROM 2 TO 1
OFFSET CHANGED FROM 1 TO 1
OFFSET CHANGED FROM 1 TO 1
OFFSET CHANGED FROM 1 TO 1
OFFSET CHANGED FROM 1 TO 2
OFFSET CHANGED FROM 2 TO 1
OFFSET CHANGED FROM 1 TO 1
OFFSET CHANGED FROM 1 TO 1
OFFSET CHANGED FROM 1 TO 1
OFFSET CHANGED FROM 1 TO 1
OFFSET CHANGED FROM 1 TO 3
OFFSET CHANGED FROM 3 TO 1
OFFSET CHANGED FROM 1 TO 3
OFFSET CHANGED FROM 3 TO 1
OFFSET CHANGED FROM 1 TO 1
OFFSET CHANGED FROM 1 TO 1
OFFSET CHANGED FROM 1 TO 1
OFFSET CHANGED FROM 1 TO 1
OFFSET CHANGED FROM 1 TO 1
OFFSET CHANGED FROM 1 TO 1
OFFSET CHANGED FROM 1 TO 1
OFFSET CHANGED FROM 1 TO 1
OFFSET CHANGED FROM 1 TO 1
OFFSET CHANGED FROM 1 TO 1
OFFSET CHANGED FROM 1 TO 1
OFFSET CHANGED FROM 1 TO 1
OFFSET CHANGED FROM 1 TO 3
OFFSET CHANGED FROM 3 TO 4
OFFSET CHANGED FROM 4 TO 1
OFFSET CHANGED FROM 1 TO 1
OFFSET CHANGED FROM 1 TO 1
OFFSET CHANGED FROM 1 TO 1
OFFSET CHANGED FROM 1 TO 1
OFFSET CHANGED FROM 1 TO 1
OFFSET CHANGED FROM 1 TO 1
OFFSET CHANGED FROM 1 TO 1
OFFSET CHANGED FROM 1 TO 2
OFFSET CHANGED FROM 2 TO 1
OFFSET CHANGED FROM 1 TO 1
OFFSET CHANGED FROM 1 TO 1
OFFSET CHANGED FROM 1 TO 1
OFFSET CHANGED FROM 1 TO 2
OFFSET CHANGED FROM 2 TO 3
OFFSET CHANGED FROM 3 TO 2
OFFSET CHANGED FROM 2 TO 2
OFFSET CHANGED FROM 2 TO 1
OFFSET CHANGED FROM 1 TO 1
OFFSET CHANGED FROM 1 TO 1
OFFSET CHANGED FROM 1 TO 1
OFFSET CHANGED FROM 1 TO 1
OFFSET CHANGED FROM 1 TO 1
OFFSET CHANGED FROM 1 TO 1
OFFSET CHANGED FROM 1 TO 1
Heartbeat CPU 0 instructions: 260000000 cycles: 143645809 heartbeat IPC: 1.6873 cumulative IPC: 1.69341 (Simulation time: 0 hr 13 min 26 sec) 
OFFSET CHANGED FROM 1 TO 1
OFFSET CHANGED FROM 1 TO 1
OFFSET CHANGED FROM 1 TO 1
OFFSET CHANGED FROM 1 TO 2
OFFSET CHANGED FROM 2 TO 2
OFFSET CHANGED FROM 2 TO 1
OFFSET CHANGED FROM 1 TO 1
OFFSET CHANGED FROM 1 TO 1
OFFSET CHANGED FROM 1 TO 1
OFFSET CHANGED FROM 1 TO 1
OFFSET CHANGED FROM 1 TO 1
OFFSET CHANGED FROM 1 TO 3
OFFSET CHANGED FROM 3 TO 3
OFFSET CHANGED FROM 3 TO 1
OFFSET CHANGED FROM 1 TO 1
OFFSET CHANGED FROM 1 TO 1
OFFSET CHANGED FROM 1 TO 1
OFFSET CHANGED FROM 1 TO 1
OFFSET CHANGED FROM 1 TO 3
OFFSET CHANGED FROM 3 TO 1
OFFSET CHANGED FROM 1 TO 1
OFFSET CHANGED FROM 1 TO 1
OFFSET CHANGED FROM 1 TO 1
OFFSET CHANGED FROM 1 TO 1
OFFSET CHANGED FROM 1 TO 1
OFFSET CHANGED FROM 1 TO 1
OFFSET CHANGED FROM 1 TO 1
OFFSET CHANGED FROM 1 TO 1
OFFSET CHANGED FROM 1 TO 1
OFFSET CHANGED FROM 1 TO 1
OFFSET CHANGED FROM 1 TO 1
OFFSET CHANGED FROM 1 TO 2
OFFSET CHANGED FROM 2 TO 2
OFFSET CHANGED FROM 2 TO 1
OFFSET CHANGED FROM 1 TO 1
OFFSET CHANGED FROM 1 TO 2
OFFSET CHANGED FROM 2 TO 1
OFFSET CHANGED FROM 1 TO 1
OFFSET CHANGED FROM 1 TO 1
OFFSET CHANGED FROM 1 TO 1
OFFSET CHANGED FROM 1 TO 1
OFFSET CHANGED FROM 1 TO 3
OFFSET CHANGED FROM 3 TO 1
OFFSET CHANGED FROM 1 TO 1
OFFSET CHANGED FROM 1 TO 1
OFFSET CHANGED FROM 1 TO 1
OFFSET CHANGED FROM 1 TO 1
OFFSET CHANGED FROM 1 TO 1
OFFSET CHANGED FROM 1 TO 1
OFFSET CHANGED FROM 1 TO 1
OFFSET CHANGED FROM 1 TO 1
OFFSET CHANGED FROM 1 TO 1
OFFSET CHANGED FROM 1 TO 1
OFFSET CHANGED FROM 1 TO 1
OFFSET CHANGED FROM 1 TO 3
OFFSET CHANGED FROM 3 TO 1
OFFSET CHANGED FROM 1 TO 1
OFFSET CHANGED FROM 1 TO 3
OFFSET CHANGED FROM 3 TO 1
OFFSET CHANGED FROM 1 TO 1
OFFSET CHANGED FROM 1 TO 1
OFFSET CHANGED FROM 1 TO 1
OFFSET CHANGED FROM 1 TO 1
OFFSET CHANGED FROM 1 TO 1
OFFSET CHANGED FROM 1 TO 2
OFFSET CHANGED FROM 2 TO 1
OFFSET CHANGED FROM 1 TO 1
OFFSET CHANGED FROM 1 TO 1
OFFSET CHANGED FROM 1 TO 1
OFFSET CHANGED FROM 1 TO 2
OFFSET CHANGED FROM 2 TO 1
OFFSET CHANGED FROM 1 TO 1
OFFSET CHANGED FROM 1 TO 1
OFFSET CHANGED FROM 1 TO 1
OFFSET CHANGED FROM 1 TO 2
OFFSET CHANGED FROM 2 TO 2
OFFSET CHANGED FROM 2 TO 2
OFFSET CHANGED FROM 2 TO 1
OFFSET CHANGED FROM 1 TO 1
OFFSET CHANGED FROM 1 TO 1
OFFSET CHANGED FROM 1 TO 1
OFFSET CHANGED FROM 1 TO 1
OFFSET CHANGED FROM 1 TO 1
OFFSET CHANGED FROM 1 TO 1
OFFSET CHANGED FROM 1 TO 1
OFFSET CHANGED FROM 1 TO 1
OFFSET CHANGED FROM 1 TO 1
Heartbeat CPU 0 instructions: 270000000 cycles: 149553830 heartbeat IPC: 1.69261 cumulative IPC: 1.69338 (Simulation time: 0 hr 13 min 58 sec) 
OFFSET CHANGED FROM 1 TO 1
OFFSET CHANGED FROM 1 TO 1
OFFSET CHANGED FROM 1 TO 2
OFFSET CHANGED FROM 2 TO 1
OFFSET CHANGED FROM 1 TO 1
OFFSET CHANGED FROM 1 TO 1
OFFSET CHANGED FROM 1 TO 1
OFFSET CHANGED FROM 1 TO 4
OFFSET CHANGED FROM 4 TO 3
OFFSET CHANGED FROM 3 TO 1
OFFSET CHANGED FROM 1 TO 1
OFFSET CHANGED FROM 1 TO 1
OFFSET CHANGED FROM 1 TO 1
OFFSET CHANGED FROM 1 TO 1
OFFSET CHANGED FROM 1 TO 2
OFFSET CHANGED FROM 2 TO 1
OFFSET CHANGED FROM 1 TO 1
OFFSET CHANGED FROM 1 TO 1
OFFSET CHANGED FROM 1 TO 1
OFFSET CHANGED FROM 1 TO 1
OFFSET CHANGED FROM 1 TO 1
OFFSET CHANGED FROM 1 TO 1
OFFSET CHANGED FROM 1 TO 1
OFFSET CHANGED FROM 1 TO 1
OFFSET CHANGED FROM 1 TO 1
OFFSET CHANGED FROM 1 TO 1
OFFSET CHANGED FROM 1 TO 1
OFFSET CHANGED FROM 1 TO 2
OFFSET CHANGED FROM 2 TO 1
OFFSET CHANGED FROM 1 TO 1
OFFSET CHANGED FROM 1 TO 1
OFFSET CHANGED FROM 1 TO 1
OFFSET CHANGED FROM 1 TO 1
OFFSET CHANGED FROM 1 TO 3
OFFSET CHANGED FROM 3 TO 1
OFFSET CHANGED FROM 1 TO 1
OFFSET CHANGED FROM 1 TO 1
OFFSET CHANGED FROM 1 TO 1
OFFSET CHANGED FROM 1 TO 1
OFFSET CHANGED FROM 1 TO 1
OFFSET CHANGED FROM 1 TO 1
OFFSET CHANGED FROM 1 TO 1
OFFSET CHANGED FROM 1 TO 1
OFFSET CHANGED FROM 1 TO 2
OFFSET CHANGED FROM 2 TO 2
OFFSET CHANGED FROM 2 TO 3
OFFSET CHANGED FROM 3 TO 6
OFFSET CHANGED FROM 6 TO 5
OFFSET CHANGED FROM 5 TO 2
OFFSET CHANGED FROM 2 TO 1
OFFSET CHANGED FROM 1 TO 1
OFFSET CHANGED FROM 1 TO 1
OFFSET CHANGED FROM 1 TO 1
OFFSET CHANGED FROM 1 TO 1
OFFSET CHANGED FROM 1 TO 1
OFFSET CHANGED FROM 1 TO 1
OFFSET CHANGED FROM 1 TO 1
OFFSET CHANGED FROM 1 TO 1
OFFSET CHANGED FROM 1 TO 1
OFFSET CHANGED FROM 1 TO 1
OFFSET CHANGED FROM 1 TO 1
OFFSET CHANGED FROM 1 TO 1
OFFSET CHANGED FROM 1 TO 1
OFFSET CHANGED FROM 1 TO 1
OFFSET CHANGED FROM 1 TO 1
OFFSET CHANGED FROM 1 TO 1
OFFSET CHANGED FROM 1 TO 1
OFFSET CHANGED FROM 1 TO 1
OFFSET CHANGED FROM 1 TO 1
OFFSET CHANGED FROM 1 TO 1
OFFSET CHANGED FROM 1 TO 1
OFFSET CHANGED FROM 1 TO 1
OFFSET CHANGED FROM 1 TO 1
OFFSET CHANGED FROM 1 TO 1
OFFSET CHANGED FROM 1 TO 1
OFFSET CHANGED FROM 1 TO 1
OFFSET CHANGED FROM 1 TO 1
OFFSET CHANGED FROM 1 TO 1
OFFSET CHANGED FROM 1 TO 1
OFFSET CHANGED FROM 1 TO 3
OFFSET CHANGED FROM 3 TO 1
OFFSET CHANGED FROM 1 TO 1
OFFSET CHANGED FROM 1 TO 1
OFFSET CHANGED FROM 1 TO 2
OFFSET CHANGED FROM 2 TO 1
Heartbeat CPU 0 instructions: 280000003 cycles: 155496819 heartbeat IPC: 1.68266 cumulative IPC: 1.69291 (Simulation time: 0 hr 14 min 30 sec) 
OFFSET CHANGED FROM 1 TO 1
OFFSET CHANGED FROM 1 TO 1
OFFSET CHANGED FROM 1 TO 1
OFFSET CHANGED FROM 1 TO 1
OFFSET CHANGED FROM 1 TO 2
OFFSET CHANGED FROM 2 TO 2
OFFSET CHANGED FROM 2 TO 1
OFFSET CHANGED FROM 1 TO 2
OFFSET CHANGED FROM 2 TO 1
OFFSET CHANGED FROM 1 TO 1
OFFSET CHANGED FROM 1 TO 6
OFFSET CHANGED FROM 6 TO 1
OFFSET CHANGED FROM 1 TO 1
OFFSET CHANGED FROM 1 TO 1
OFFSET CHANGED FROM 1 TO 3
OFFSET CHANGED FROM 3 TO 2
OFFSET CHANGED FROM 2 TO 1
OFFSET CHANGED FROM 1 TO 1
OFFSET CHANGED FROM 1 TO 1
OFFSET CHANGED FROM 1 TO 1
OFFSET CHANGED FROM 1 TO 2
OFFSET CHANGED FROM 2 TO 1
OFFSET CHANGED FROM 1 TO 1
OFFSET CHANGED FROM 1 TO 1
OFFSET CHANGED FROM 1 TO 1
OFFSET CHANGED FROM 1 TO 1
OFFSET CHANGED FROM 1 TO 1
OFFSET CHANGED FROM 1 TO 1
OFFSET CHANGED FROM 1 TO 1
OFFSET CHANGED FROM 1 TO 1
OFFSET CHANGED FROM 1 TO 1
OFFSET CHANGED FROM 1 TO 1
OFFSET CHANGED FROM 1 TO 1
OFFSET CHANGED FROM 1 TO 1
OFFSET CHANGED FROM 1 TO 1
OFFSET CHANGED FROM 1 TO 1
OFFSET CHANGED FROM 1 TO 1
OFFSET CHANGED FROM 1 TO 1
OFFSET CHANGED FROM 1 TO 1
OFFSET CHANGED FROM 1 TO 1
OFFSET CHANGED FROM 1 TO 1
OFFSET CHANGED FROM 1 TO 1
OFFSET CHANGED FROM 1 TO 1
OFFSET CHANGED FROM 1 TO 1
OFFSET CHANGED FROM 1 TO 1
OFFSET CHANGED FROM 1 TO 1
OFFSET CHANGED FROM 1 TO 3
OFFSET CHANGED FROM 3 TO 3
OFFSET CHANGED FROM 3 TO 1
OFFSET CHANGED FROM 1 TO 1
OFFSET CHANGED FROM 1 TO 1
OFFSET CHANGED FROM 1 TO 1
OFFSET CHANGED FROM 1 TO 1
OFFSET CHANGED FROM 1 TO 1
OFFSET CHANGED FROM 1 TO 1
OFFSET CHANGED FROM 1 TO 1
OFFSET CHANGED FROM 1 TO 1
OFFSET CHANGED FROM 1 TO 4
OFFSET CHANGED FROM 4 TO 1
OFFSET CHANGED FROM 1 TO 1
OFFSET CHANGED FROM 1 TO 1
OFFSET CHANGED FROM 1 TO 1
OFFSET CHANGED FROM 1 TO 3
OFFSET CHANGED FROM 3 TO 1
OFFSET CHANGED FROM 1 TO 1
OFFSET CHANGED FROM 1 TO 1
OFFSET CHANGED FROM 1 TO 1
OFFSET CHANGED FROM 1 TO 2
OFFSET CHANGED FROM 2 TO 1
OFFSET CHANGED FROM 1 TO 1
OFFSET CHANGED FROM 1 TO 1
OFFSET CHANGED FROM 1 TO 1
OFFSET CHANGED FROM 1 TO 1
OFFSET CHANGED FROM 1 TO 1
OFFSET CHANGED FROM 1 TO 3
OFFSET CHANGED FROM 3 TO 2
OFFSET CHANGED FROM 2 TO 3
OFFSET CHANGED FROM 3 TO 1
OFFSET CHANGED FROM 1 TO 1
OFFSET CHANGED FROM 1 TO 1
OFFSET CHANGED FROM 1 TO 1
OFFSET CHANGED FROM 1 TO 1
OFFSET CHANGED FROM 1 TO 1
OFFSET CHANGED FROM 1 TO 1
OFFSET CHANGED FROM 1 TO 2
OFFSET CHANGED FROM 2 TO 1
OFFSET CHANGED FROM 1 TO 1
Heartbeat CPU 0 instructions: 290000003 cycles: 161426525 heartbeat IPC: 1.68642 cumulative IPC: 1.69264 (Simulation time: 0 hr 15 min 2 sec) 
OFFSET CHANGED FROM 1 TO 1
OFFSET CHANGED FROM 1 TO 1
OFFSET CHANGED FROM 1 TO 3
OFFSET CHANGED FROM 3 TO 6
OFFSET CHANGED FROM 6 TO 1
OFFSET CHANGED FROM 1 TO 5
OFFSET CHANGED FROM 5 TO 1
OFFSET CHANGED FROM 1 TO 1
OFFSET CHANGED FROM 1 TO 1
OFFSET CHANGED FROM 1 TO 1
OFFSET CHANGED FROM 1 TO 2
OFFSET CHANGED FROM 2 TO 1
OFFSET CHANGED FROM 1 TO 1
OFFSET CHANGED FROM 1 TO 2
OFFSET CHANGED FROM 2 TO 1
OFFSET CHANGED FROM 1 TO 2
OFFSET CHANGED FROM 2 TO 1
OFFSET CHANGED FROM 1 TO 1
OFFSET CHANGED FROM 1 TO 1
OFFSET CHANGED FROM 1 TO 1
OFFSET CHANGED FROM 1 TO 1
OFFSET CHANGED FROM 1 TO 1
OFFSET CHANGED FROM 1 TO 1
OFFSET CHANGED FROM 1 TO 1
OFFSET CHANGED FROM 1 TO 1
OFFSET CHANGED FROM 1 TO 1
OFFSET CHANGED FROM 1 TO 1
OFFSET CHANGED FROM 1 TO 1
OFFSET CHANGED FROM 1 TO 1
OFFSET CHANGED FROM 1 TO 1
OFFSET CHANGED FROM 1 TO 1
OFFSET CHANGED FROM 1 TO 1
OFFSET CHANGED FROM 1 TO 1
OFFSET CHANGED FROM 1 TO 1
OFFSET CHANGED FROM 1 TO 1
OFFSET CHANGED FROM 1 TO 1
OFFSET CHANGED FROM 1 TO 1
OFFSET CHANGED FROM 1 TO 2
OFFSET CHANGED FROM 2 TO 1
OFFSET CHANGED FROM 1 TO 1
OFFSET CHANGED FROM 1 TO 1
OFFSET CHANGED FROM 1 TO 1
OFFSET CHANGED FROM 1 TO 1
OFFSET CHANGED FROM 1 TO 5
OFFSET CHANGED FROM 5 TO 1
OFFSET CHANGED FROM 1 TO 1
OFFSET CHANGED FROM 1 TO 1
OFFSET CHANGED FROM 1 TO 1
OFFSET CHANGED FROM 1 TO 1
OFFSET CHANGED FROM 1 TO 1
OFFSET CHANGED FROM 1 TO 2
OFFSET CHANGED FROM 2 TO 1
OFFSET CHANGED FROM 1 TO 1
OFFSET CHANGED FROM 1 TO 1
OFFSET CHANGED FROM 1 TO 1
OFFSET CHANGED FROM 1 TO 1
OFFSET CHANGED FROM 1 TO 1
OFFSET CHANGED FROM 1 TO 1
OFFSET CHANGED FROM 1 TO 1
OFFSET CHANGED FROM 1 TO 1
OFFSET CHANGED FROM 1 TO 1
OFFSET CHANGED FROM 1 TO 1
OFFSET CHANGED FROM 1 TO 1
OFFSET CHANGED FROM 1 TO 1
OFFSET CHANGED FROM 1 TO 1
OFFSET CHANGED FROM 1 TO 1
OFFSET CHANGED FROM 1 TO 1
OFFSET CHANGED FROM 1 TO 1
OFFSET CHANGED FROM 1 TO 1
OFFSET CHANGED FROM 1 TO 1
OFFSET CHANGED FROM 1 TO 1
OFFSET CHANGED FROM 1 TO 1
OFFSET CHANGED FROM 1 TO 1
OFFSET CHANGED FROM 1 TO 1
OFFSET CHANGED FROM 1 TO 1
OFFSET CHANGED FROM 1 TO 1
OFFSET CHANGED FROM 1 TO 2
OFFSET CHANGED FROM 2 TO 1
OFFSET CHANGED FROM 1 TO 1
OFFSET CHANGED FROM 1 TO 3
OFFSET CHANGED FROM 3 TO 1
OFFSET CHANGED FROM 1 TO 1
OFFSET CHANGED FROM 1 TO 1
OFFSET CHANGED FROM 1 TO 1
OFFSET CHANGED FROM 1 TO 3
Heartbeat CPU 0 instructions: 300000002 cycles: 167368214 heartbeat IPC: 1.68302 cumulative IPC: 1.69225 (Simulation time: 0 hr 15 min 34 sec) 
Finished CPU 0 instructions: 250000003 cycles: 147732318 cumulative IPC: 1.69225 (Simulation time: 0 hr 15 min 34 sec) 

ChampSim completed all CPUs

Region of Interest Statistics

CPU 0 cumulative IPC: 1.69225 instructions: 250000003 cycles: 147732318
L1D TOTAL     ACCESS:   67846068  HIT:   64680461  MISS:    3165607
L1D LOAD      ACCESS:   55760874  HIT:   53004903  MISS:    2755971
L1D RFO       ACCESS:   12085194  HIT:   11675558  MISS:     409636
L1D PREFETCH  ACCESS:          0  HIT:          0  MISS:          0
L1D WRITEBACK ACCESS:          0  HIT:          0  MISS:          0
L1D PREFETCH  REQUESTED:          0  ISSUED:          0  USEFUL:          0  USELESS:          0
L1D AVERAGE MISS LATENCY: 53.1047 cycles
L1I TOTAL     ACCESS:   40604827  HIT:   40604624  MISS:        203
L1I LOAD      ACCESS:   40604755  HIT:   40604618  MISS:        137
L1I RFO       ACCESS:          0  HIT:          0  MISS:          0
L1I PREFETCH  ACCESS:         72  HIT:          6  MISS:         66
L1I WRITEBACK ACCESS:          0  HIT:          0  MISS:          0
L1I PREFETCH  REQUESTED:        178  ISSUED:        178  USEFUL:         36  USELESS:          0
L1I AVERAGE MISS LATENCY: 134.778 cycles
L2C TOTAL     ACCESS:    6076267  HIT:    3018526  MISS:    3057741
L2C LOAD      ACCESS:    2755998  HIT:    2441390  MISS:     314608
L2C RFO       ACCESS:     409636  HIT:       1631  MISS:     408005
L2C PREFETCH  ACCESS:    2489555  HIT:     169283  MISS:    2320272
L2C WRITEBACK ACCESS:     421078  HIT:     406222  MISS:      14856
L2C PREFETCH  REQUESTED:    2693804  ISSUED:    2693804  USEFUL:    2269384  USELESS:      50744
L2C AVERAGE MISS LATENCY: 141.295 cycles
LLC TOTAL     ACCESS:    3460082  HIT:    1033536  MISS:    2426546
LLC LOAD      ACCESS:     115142  HIT:      24686  MISS:      90456
LLC RFO       ACCESS:     408005  HIT:      82179  MISS:     325826
LLC PREFETCH  ACCESS:    2519750  HIT:     509840  MISS:    2009910
LLC WRITEBACK ACCESS:     417185  HIT:     416831  MISS:        354
LLC PREFETCH  REQUESTED:          0  ISSUED:          0  USEFUL:      30066  USELESS:    1955850
LLC AVERAGE MISS LATENCY: 157.148 cycles
Major fault: 0 Minor fault: 69140
CPU 0 L1I next line prefetcher final stats
CPU 0 L2C best offset prefetcher final stats

DRAM Statistics
 CHANNEL 0
 RQ ROW_BUFFER_HIT:    1620443  ROW_BUFFER_MISS:     805506
 DBUS_CONGESTED:     670412
 WQ ROW_BUFFER_HIT:     140924  ROW_BUFFER_MISS:     237760  FULL:          0

 AVG_CONGESTED_CYCLE: 5

CPU 0 Branch Prediction Accuracy: 99.914% MPKI: 0.03306 Average ROB Occupancy at Mispredict: 285.109

Branch types
NOT_BRANCH: 240390074 96.156%
BRANCH_DIRECT_JUMP: 187 7.48e-05%
BRANCH_INDIRECT: 0 0%
BRANCH_CONDITIONAL: 9609358 3.84374%
BRANCH_DIRECT_CALL: 169 6.76e-05%
BRANCH_INDIRECT_CALL: 0 0%
BRANCH_RETURN: 169 6.76e-05%
BRANCH_OTHER: 0 0%

