
*** ChampSim Multicore Out-of-Order Simulator ***

Warmup Instructions: 50000000
Simulation Instructions: 250000000
Number of CPUs: 1
LLC sets: 2048
LLC ways: 16
Off-chip DRAM Size: 4096 MB Channels: 1 Width: 64-bit Data Rate: 3200 MT/s

CPU 0 runs /home/wezelis2/ECE511_Project/ChampSim/dpc3_traces/456.hmmer-327B.champsimtrace.xz
CPU 0 Bimodal branch predictor
CPU 0 L1I next line prefetcher
Heartbeat CPU 0 instructions: 10000000 cycles: 4814096 heartbeat IPC: 2.07723 cumulative IPC: 2.07723 (Simulation time: 0 hr 0 min 31 sec) 
Heartbeat CPU 0 instructions: 20000003 cycles: 9624202 heartbeat IPC: 2.07896 cumulative IPC: 2.07809 (Simulation time: 0 hr 1 min 3 sec) 
Heartbeat CPU 0 instructions: 30000001 cycles: 14422760 heartbeat IPC: 2.08396 cumulative IPC: 2.08005 (Simulation time: 0 hr 1 min 35 sec) 
Heartbeat CPU 0 instructions: 40000002 cycles: 19228763 heartbeat IPC: 2.08073 cumulative IPC: 2.08022 (Simulation time: 0 hr 2 min 6 sec) 
Heartbeat CPU 0 instructions: 50000003 cycles: 24032597 heartbeat IPC: 2.08167 cumulative IPC: 2.08051 (Simulation time: 0 hr 2 min 38 sec) 

Warmup complete CPU 0 instructions: 50000003 cycles: 24032597 (Simulation time: 0 hr 2 min 38 sec) 

Heartbeat CPU 0 instructions: 60000000 cycles: 29705241 heartbeat IPC: 1.76285 cumulative IPC: 1.76285 (Simulation time: 0 hr 3 min 8 sec) 
Heartbeat CPU 0 instructions: 70000002 cycles: 35373481 heartbeat IPC: 1.76422 cumulative IPC: 1.76353 (Simulation time: 0 hr 3 min 38 sec) 
Heartbeat CPU 0 instructions: 80000002 cycles: 41051487 heartbeat IPC: 1.76118 cumulative IPC: 1.76275 (Simulation time: 0 hr 4 min 8 sec) 
Heartbeat CPU 0 instructions: 90000000 cycles: 46783388 heartbeat IPC: 1.74462 cumulative IPC: 1.75818 (Simulation time: 0 hr 4 min 39 sec) 
Heartbeat CPU 0 instructions: 100000003 cycles: 52462952 heartbeat IPC: 1.7607 cumulative IPC: 1.75868 (Simulation time: 0 hr 5 min 9 sec) 
Heartbeat CPU 0 instructions: 110000000 cycles: 58151377 heartbeat IPC: 1.75796 cumulative IPC: 1.75856 (Simulation time: 0 hr 5 min 39 sec) 
Heartbeat CPU 0 instructions: 120000000 cycles: 63823578 heartbeat IPC: 1.76298 cumulative IPC: 1.75919 (Simulation time: 0 hr 6 min 10 sec) 
Heartbeat CPU 0 instructions: 130000001 cycles: 69493781 heartbeat IPC: 1.76361 cumulative IPC: 1.75974 (Simulation time: 0 hr 6 min 40 sec) 
Heartbeat CPU 0 instructions: 140000001 cycles: 75195526 heartbeat IPC: 1.75385 cumulative IPC: 1.75909 (Simulation time: 0 hr 7 min 10 sec) 
Heartbeat CPU 0 instructions: 150000003 cycles: 80860703 heartbeat IPC: 1.76517 cumulative IPC: 1.75969 (Simulation time: 0 hr 7 min 40 sec) 
Heartbeat CPU 0 instructions: 160000001 cycles: 86530677 heartbeat IPC: 1.76368 cumulative IPC: 1.76005 (Simulation time: 0 hr 8 min 11 sec) 
Heartbeat CPU 0 instructions: 170000001 cycles: 92197046 heartbeat IPC: 1.7648 cumulative IPC: 1.76045 (Simulation time: 0 hr 8 min 41 sec) 
Heartbeat CPU 0 instructions: 180000000 cycles: 97945338 heartbeat IPC: 1.73965 cumulative IPC: 1.75883 (Simulation time: 0 hr 9 min 11 sec) 
Heartbeat CPU 0 instructions: 190000000 cycles: 103582191 heartbeat IPC: 1.77404 cumulative IPC: 1.75991 (Simulation time: 0 hr 9 min 42 sec) 
Heartbeat CPU 0 instructions: 200000002 cycles: 109312171 heartbeat IPC: 1.74521 cumulative IPC: 1.75892 (Simulation time: 0 hr 10 min 13 sec) 
Heartbeat CPU 0 instructions: 210000003 cycles: 115039314 heartbeat IPC: 1.74607 cumulative IPC: 1.75811 (Simulation time: 0 hr 10 min 44 sec) 
Heartbeat CPU 0 instructions: 220000000 cycles: 120872126 heartbeat IPC: 1.71444 cumulative IPC: 1.75548 (Simulation time: 0 hr 11 min 14 sec) 
Heartbeat CPU 0 instructions: 230000000 cycles: 126583022 heartbeat IPC: 1.75104 cumulative IPC: 1.75523 (Simulation time: 0 hr 11 min 45 sec) 
Heartbeat CPU 0 instructions: 240000003 cycles: 132355818 heartbeat IPC: 1.73226 cumulative IPC: 1.75401 (Simulation time: 0 hr 12 min 16 sec) 
Heartbeat CPU 0 instructions: 250000003 cycles: 138046780 heartbeat IPC: 1.75717 cumulative IPC: 1.75417 (Simulation time: 0 hr 12 min 47 sec) 
Heartbeat CPU 0 instructions: 260000002 cycles: 143810759 heartbeat IPC: 1.73491 cumulative IPC: 1.75324 (Simulation time: 0 hr 13 min 18 sec) 
Heartbeat CPU 0 instructions: 270000002 cycles: 149588529 heartbeat IPC: 1.73077 cumulative IPC: 1.75221 (Simulation time: 0 hr 13 min 48 sec) 
Heartbeat CPU 0 instructions: 280000002 cycles: 155284952 heartbeat IPC: 1.75549 cumulative IPC: 1.75235 (Simulation time: 0 hr 14 min 19 sec) 
Heartbeat CPU 0 instructions: 290000000 cycles: 161061818 heartbeat IPC: 1.73104 cumulative IPC: 1.75145 (Simulation time: 0 hr 14 min 50 sec) 
Heartbeat CPU 0 instructions: 300000000 cycles: 166765696 heartbeat IPC: 1.75319 cumulative IPC: 1.75152 (Simulation time: 0 hr 15 min 21 sec) 
Finished CPU 0 instructions: 250000001 cycles: 142733100 cumulative IPC: 1.75152 (Simulation time: 0 hr 15 min 21 sec) 

ChampSim completed all CPUs

Region of Interest Statistics

CPU 0 cumulative IPC: 1.75152 instructions: 250000001 cycles: 142733100
L1D TOTAL     ACCESS:   88762866  HIT:   87669795  MISS:    1093071
L1D LOAD      ACCESS:   71735415  HIT:   71632387  MISS:     103028
L1D RFO       ACCESS:   15862942  HIT:   15705955  MISS:     156987
L1D PREFETCH  ACCESS:    1164509  HIT:     331453  MISS:     833056
L1D WRITEBACK ACCESS:          0  HIT:          0  MISS:          0
L1D PREFETCH  REQUESTED:    1181011  ISSUED:    1181011  USEFUL:     769317  USELESS:      63733
L1D AVERAGE MISS LATENCY: 90.2277 cycles
L1I TOTAL     ACCESS:   41009549  HIT:   41009543  MISS:          6
L1I LOAD      ACCESS:   41009546  HIT:   41009542  MISS:          4
L1I RFO       ACCESS:          0  HIT:          0  MISS:          0
L1I PREFETCH  ACCESS:          3  HIT:          1  MISS:          2
L1I WRITEBACK ACCESS:          0  HIT:          0  MISS:          0
L1I PREFETCH  REQUESTED:          4  ISSUED:          4  USEFUL:          3  USELESS:          1
L1I AVERAGE MISS LATENCY: 218.667 cycles
L2C TOTAL     ACCESS:    1767904  HIT:    1091868  MISS:     676036
L2C LOAD      ACCESS:     102183  HIT:      93893  MISS:       8290
L2C RFO       ACCESS:     151381  HIT:       4106  MISS:     147275
L2C PREFETCH  ACCESS:     847601  HIT:     327177  MISS:     520424
L2C WRITEBACK ACCESS:     666739  HIT:     666692  MISS:         47
L2C PREFETCH  REQUESTED:          0  ISSUED:          0  USEFUL:       4999  USELESS:     515474
L2C AVERAGE MISS LATENCY: 121.646 cycles
LLC TOTAL     ACCESS:    1328058  HIT:    1003787  MISS:     324271
LLC LOAD      ACCESS:       8264  HIT:       6251  MISS:       2013
LLC RFO       ACCESS:     147275  HIT:      75603  MISS:      71672
LLC PREFETCH  ACCESS:     520450  HIT:     269887  MISS:     250563
LLC WRITEBACK ACCESS:     652069  HIT:     652046  MISS:         23
LLC PREFETCH  REQUESTED:          0  ISSUED:          0  USEFUL:       2781  USELESS:     245069
LLC AVERAGE MISS LATENCY: 191.051 cycles
Major fault: 0 Minor fault: 2245
CPU 0 L1I next line prefetcher final stats

DRAM Statistics
 CHANNEL 0
 RQ ROW_BUFFER_HIT:     140309  ROW_BUFFER_MISS:     183940
 DBUS_CONGESTED:     393170
 WQ ROW_BUFFER_HIT:     147802  ROW_BUFFER_MISS:     167697  FULL:          0

 AVG_CONGESTED_CYCLE: 6

CPU 0 Branch Prediction Accuracy: 99.402% MPKI: 0.264272 Average ROB Occupancy at Mispredict: 88.4281

Branch types
NOT_BRANCH: 238951830 95.5807%
BRANCH_DIRECT_JUMP: 43649 0.0174596%
BRANCH_INDIRECT: 14325 0.00573%
BRANCH_CONDITIONAL: 10910018 4.36401%
BRANCH_DIRECT_CALL: 39823 0.0159292%
BRANCH_INDIRECT_CALL: 266 0.0001064%
BRANCH_RETURN: 40089 0.0160356%
BRANCH_OTHER: 0 0%

