
*** ChampSim Multicore Out-of-Order Simulator ***

Warmup Instructions: 50000000
Simulation Instructions: 250000000
Number of CPUs: 1
LLC sets: 2048
LLC ways: 16
Off-chip DRAM Size: 4096 MB Channels: 1 Width: 64-bit Data Rate: 3200 MT/s

CPU 0 runs /home/wezelis2/ece511/ECE511_Project/ChampSim/dpc3_traces/456.hmmer-327B.champsimtrace.xz
CPU 0 Bimodal branch predictor
CPU 0 L1I next line prefetcher
Heartbeat CPU 0 instructions: 10000000 cycles: 4814598 heartbeat IPC: 2.07702 cumulative IPC: 2.07702 (Simulation time: 0 hr 0 min 31 sec) 
Heartbeat CPU 0 instructions: 20000003 cycles: 9625290 heartbeat IPC: 2.0787 cumulative IPC: 2.07786 (Simulation time: 0 hr 1 min 2 sec) 
Heartbeat CPU 0 instructions: 30000001 cycles: 14424643 heartbeat IPC: 2.08361 cumulative IPC: 2.07977 (Simulation time: 0 hr 1 min 34 sec) 
Heartbeat CPU 0 instructions: 40000002 cycles: 19231367 heartbeat IPC: 2.08042 cumulative IPC: 2.07994 (Simulation time: 0 hr 2 min 7 sec) 
Heartbeat CPU 0 instructions: 50000003 cycles: 24035974 heartbeat IPC: 2.08134 cumulative IPC: 2.08022 (Simulation time: 0 hr 2 min 39 sec) 

Warmup complete CPU 0 instructions: 50000003 cycles: 24035974 (Simulation time: 0 hr 2 min 39 sec) 

Heartbeat CPU 0 instructions: 60000000 cycles: 29726579 heartbeat IPC: 1.75728 cumulative IPC: 1.75728 (Simulation time: 0 hr 3 min 12 sec) 
Heartbeat CPU 0 instructions: 70000002 cycles: 35416727 heartbeat IPC: 1.75742 cumulative IPC: 1.75735 (Simulation time: 0 hr 3 min 42 sec) 
Heartbeat CPU 0 instructions: 80000002 cycles: 41112587 heartbeat IPC: 1.75566 cumulative IPC: 1.75679 (Simulation time: 0 hr 4 min 12 sec) 
Heartbeat CPU 0 instructions: 90000000 cycles: 46906131 heartbeat IPC: 1.72606 cumulative IPC: 1.749 (Simulation time: 0 hr 4 min 43 sec) 
Heartbeat CPU 0 instructions: 100000003 cycles: 52619421 heartbeat IPC: 1.75031 cumulative IPC: 1.74926 (Simulation time: 0 hr 5 min 13 sec) 
Heartbeat CPU 0 instructions: 110000000 cycles: 58331830 heartbeat IPC: 1.75057 cumulative IPC: 1.74948 (Simulation time: 0 hr 5 min 43 sec) 
Heartbeat CPU 0 instructions: 120000000 cycles: 64030962 heartbeat IPC: 1.75465 cumulative IPC: 1.75022 (Simulation time: 0 hr 6 min 13 sec) 
Heartbeat CPU 0 instructions: 130000001 cycles: 69722557 heartbeat IPC: 1.75698 cumulative IPC: 1.75106 (Simulation time: 0 hr 6 min 44 sec) 
Heartbeat CPU 0 instructions: 140000001 cycles: 75462244 heartbeat IPC: 1.74226 cumulative IPC: 1.75008 (Simulation time: 0 hr 7 min 14 sec) 
Heartbeat CPU 0 instructions: 150000003 cycles: 81153538 heartbeat IPC: 1.75707 cumulative IPC: 1.75077 (Simulation time: 0 hr 7 min 45 sec) 
Heartbeat CPU 0 instructions: 160000001 cycles: 86844342 heartbeat IPC: 1.75722 cumulative IPC: 1.75136 (Simulation time: 0 hr 8 min 15 sec) 
Heartbeat CPU 0 instructions: 170000001 cycles: 92534807 heartbeat IPC: 1.75733 cumulative IPC: 1.75185 (Simulation time: 0 hr 8 min 45 sec) 
Heartbeat CPU 0 instructions: 180000000 cycles: 98307938 heartbeat IPC: 1.73216 cumulative IPC: 1.75032 (Simulation time: 0 hr 9 min 14 sec) 
Heartbeat CPU 0 instructions: 190000000 cycles: 103960880 heartbeat IPC: 1.76899 cumulative IPC: 1.75164 (Simulation time: 0 hr 9 min 44 sec) 
Heartbeat CPU 0 instructions: 200000002 cycles: 109750940 heartbeat IPC: 1.7271 cumulative IPC: 1.74999 (Simulation time: 0 hr 10 min 15 sec) 
Heartbeat CPU 0 instructions: 210000003 cycles: 115532686 heartbeat IPC: 1.72958 cumulative IPC: 1.7487 (Simulation time: 0 hr 10 min 45 sec) 
Heartbeat CPU 0 instructions: 220000000 cycles: 121506254 heartbeat IPC: 1.67404 cumulative IPC: 1.74412 (Simulation time: 0 hr 11 min 15 sec) 
Heartbeat CPU 0 instructions: 230000000 cycles: 127258706 heartbeat IPC: 1.73839 cumulative IPC: 1.7438 (Simulation time: 0 hr 11 min 45 sec) 
Heartbeat CPU 0 instructions: 240000003 cycles: 133146504 heartbeat IPC: 1.69843 cumulative IPC: 1.74135 (Simulation time: 0 hr 12 min 15 sec) 
Heartbeat CPU 0 instructions: 250000003 cycles: 138885582 heartbeat IPC: 1.74244 cumulative IPC: 1.74141 (Simulation time: 0 hr 12 min 44 sec) 
Heartbeat CPU 0 instructions: 260000002 cycles: 144740692 heartbeat IPC: 1.70791 cumulative IPC: 1.73978 (Simulation time: 0 hr 13 min 14 sec) 
Heartbeat CPU 0 instructions: 270000002 cycles: 150625406 heartbeat IPC: 1.69932 cumulative IPC: 1.7379 (Simulation time: 0 hr 13 min 44 sec) 
Heartbeat CPU 0 instructions: 280000002 cycles: 156370857 heartbeat IPC: 1.74051 cumulative IPC: 1.73801 (Simulation time: 0 hr 14 min 15 sec) 
Heartbeat CPU 0 instructions: 290000000 cycles: 162254657 heartbeat IPC: 1.69958 cumulative IPC: 1.73638 (Simulation time: 0 hr 14 min 45 sec) 
Heartbeat CPU 0 instructions: 300000000 cycles: 168004236 heartbeat IPC: 1.73926 cumulative IPC: 1.73649 (Simulation time: 0 hr 15 min 16 sec) 
Finished CPU 0 instructions: 250000001 cycles: 143968263 cumulative IPC: 1.73649 (Simulation time: 0 hr 15 min 16 sec) 

ChampSim completed all CPUs

Region of Interest Statistics

CPU 0 cumulative IPC: 1.73649 instructions: 250000001 cycles: 143968263
L1D TOTAL     ACCESS:   88489594  HIT:   87420376  MISS:    1069218
L1D LOAD      ACCESS:   71666429  HIT:   71491375  MISS:     175054
L1D RFO       ACCESS:   15847054  HIT:   15677745  MISS:     169309
L1D PREFETCH  ACCESS:     976111  HIT:     251256  MISS:     724855
L1D WRITEBACK ACCESS:          0  HIT:          0  MISS:          0
L1D PREFETCH  REQUESTED:    1039765  ISSUED:    1039765  USEFUL:     683407  USELESS:      41450
L1D AVERAGE MISS LATENCY: 91.4222 cycles
L1I TOTAL     ACCESS:   41062406  HIT:   41062400  MISS:          6
L1I LOAD      ACCESS:   41062403  HIT:   41062399  MISS:          4
L1I RFO       ACCESS:          0  HIT:          0  MISS:          0
L1I PREFETCH  ACCESS:          3  HIT:          1  MISS:          2
L1I WRITEBACK ACCESS:          0  HIT:          0  MISS:          0
L1I PREFETCH  REQUESTED:          4  ISSUED:          4  USEFUL:          3  USELESS:          1
L1I AVERAGE MISS LATENCY: 218.667 cycles
L2C TOTAL     ACCESS:    1793233  HIT:    1118345  MISS:     674888
L2C LOAD      ACCESS:     174979  HIT:     154907  MISS:      20072
L2C RFO       ACCESS:     164066  HIT:       4867  MISS:     159199
L2C PREFETCH  ACCESS:     787458  HIT:     291907  MISS:     495551
L2C WRITEBACK ACCESS:     666730  HIT:     666664  MISS:         66
L2C PREFETCH  REQUESTED:          0  ISSUED:          0  USEFUL:       2616  USELESS:     493018
L2C AVERAGE MISS LATENCY: 121.124 cycles
LLC TOTAL     ACCESS:    1326768  HIT:    1003148  MISS:     323620
LLC LOAD      ACCESS:      20070  HIT:      13897  MISS:       6173
LLC RFO       ACCESS:     159197  HIT:      83301  MISS:      75896
LLC PREFETCH  ACCESS:     495555  HIT:     254027  MISS:     241528
LLC WRITEBACK ACCESS:     651946  HIT:     651923  MISS:         23
LLC PREFETCH  REQUESTED:          0  ISSUED:          0  USEFUL:       2941  USELESS:     236109
LLC AVERAGE MISS LATENCY: 190.028 cycles
Major fault: 0 Minor fault: 2245
CPU 0 L1I next line prefetcher final stats

DRAM Statistics
 CHANNEL 0
 RQ ROW_BUFFER_HIT:     140259  ROW_BUFFER_MISS:     183339
 DBUS_CONGESTED:     386412
 WQ ROW_BUFFER_HIT:     148846  ROW_BUFFER_MISS:     166602  FULL:          0

 AVG_CONGESTED_CYCLE: 6

CPU 0 Branch Prediction Accuracy: 99.402% MPKI: 0.264272 Average ROB Occupancy at Mispredict: 88.5504

Branch types
NOT_BRANCH: 238951830 95.5807%
BRANCH_DIRECT_JUMP: 43649 0.0174596%
BRANCH_INDIRECT: 14325 0.00573%
BRANCH_CONDITIONAL: 10910018 4.36401%
BRANCH_DIRECT_CALL: 39823 0.0159292%
BRANCH_INDIRECT_CALL: 266 0.0001064%
BRANCH_RETURN: 40089 0.0160356%
BRANCH_OTHER: 0 0%

