
*** ChampSim Multicore Out-of-Order Simulator ***

Warmup Instructions: 50000000
Simulation Instructions: 250000000
Number of CPUs: 1
LLC sets: 2048
LLC ways: 16
Off-chip DRAM Size: 4096 MB Channels: 1 Width: 64-bit Data Rate: 3200 MT/s

CPU 0 runs /home/wezelis2/ECE511_Project/ChampSim/dpc3_traces/416.gamess-875B.champsimtrace.xz
CPU 0 Bimodal branch predictor
CPU 0 L1I next line prefetcher
INIT BEST RECENT REQUEST TABLE MODULE
INIT DELAY QUEUE MODULE
INIT PREFETCH THROTTLE MODULE
INIT OFFSET SCORE MODULE
INIT BEST OFFSET PREFETCHER
OFFSET CHANGED FROM 1 TO 2
OFFSET CHANGED FROM 2 TO 1
Heartbeat CPU 0 instructions: 10000000 cycles: 4068534 heartbeat IPC: 2.45789 cumulative IPC: 2.45789 (Simulation time: 0 hr 0 min 26 sec) 
OFFSET CHANGED FROM 1 TO 4
CHANGING MSHR THRESHOLD FROM 28 TO 26
CHANGING MSHR THRESHOLD FROM 26 TO 24
CHANGING MSHR THRESHOLD FROM 24 TO 23
CHANGING MSHR THRESHOLD FROM 23 TO 21
CHANGING MSHR THRESHOLD FROM 21 TO 19
CHANGING MSHR THRESHOLD FROM 19 TO 18
CHANGING MSHR THRESHOLD FROM 18 TO 16
CHANGING MSHR THRESHOLD FROM 16 TO 15
CHANGING MSHR THRESHOLD FROM 15 TO 13
CHANGING MSHR THRESHOLD FROM 13 TO 11
CHANGING MSHR THRESHOLD FROM 11 TO 10
CHANGING MSHR THRESHOLD FROM 10 TO 8
CHANGING MSHR THRESHOLD FROM 8 TO 10
CHANGING MSHR THRESHOLD FROM 10 TO 11
CHANGING MSHR THRESHOLD FROM 11 TO 13
CHANGING MSHR THRESHOLD FROM 13 TO 15
CHANGING MSHR THRESHOLD FROM 15 TO 16
CHANGING MSHR THRESHOLD FROM 16 TO 18
CHANGING MSHR THRESHOLD FROM 18 TO 19
CHANGING MSHR THRESHOLD FROM 19 TO 21
CHANGING MSHR THRESHOLD FROM 21 TO 23
CHANGING MSHR THRESHOLD FROM 23 TO 24
CHANGING MSHR THRESHOLD FROM 24 TO 26
CHANGING MSHR THRESHOLD FROM 26 TO 28
OFFSET CHANGED FROM 4 TO 7
CHANGING MSHR THRESHOLD FROM 28 TO 26
CHANGING MSHR THRESHOLD FROM 26 TO 24
CHANGING MSHR THRESHOLD FROM 24 TO 23
CHANGING MSHR THRESHOLD FROM 23 TO 21
CHANGING MSHR THRESHOLD FROM 21 TO 19
CHANGING MSHR THRESHOLD FROM 19 TO 18
CHANGING MSHR THRESHOLD FROM 18 TO 16
CHANGING MSHR THRESHOLD FROM 16 TO 15
CHANGING MSHR THRESHOLD FROM 15 TO 13
CHANGING MSHR THRESHOLD FROM 13 TO 11
CHANGING MSHR THRESHOLD FROM 11 TO 10
CHANGING MSHR THRESHOLD FROM 10 TO 11
CHANGING MSHR THRESHOLD FROM 11 TO 13
CHANGING MSHR THRESHOLD FROM 13 TO 15
CHANGING MSHR THRESHOLD FROM 15 TO 16
CHANGING MSHR THRESHOLD FROM 16 TO 18
CHANGING MSHR THRESHOLD FROM 18 TO 19
CHANGING MSHR THRESHOLD FROM 19 TO 21
CHANGING MSHR THRESHOLD FROM 21 TO 23
CHANGING MSHR THRESHOLD FROM 23 TO 24
CHANGING MSHR THRESHOLD FROM 24 TO 26
CHANGING MSHR THRESHOLD FROM 26 TO 28
OFFSET CHANGED FROM 7 TO 8
CHANGING MSHR THRESHOLD FROM 28 TO 26
CHANGING MSHR THRESHOLD FROM 26 TO 24
CHANGING MSHR THRESHOLD FROM 24 TO 23
CHANGING MSHR THRESHOLD FROM 23 TO 21
CHANGING MSHR THRESHOLD FROM 21 TO 23
CHANGING MSHR THRESHOLD FROM 23 TO 24
CHANGING MSHR THRESHOLD FROM 24 TO 26
CHANGING MSHR THRESHOLD FROM 26 TO 28
CHANGING MSHR THRESHOLD FROM 28 TO 26
CHANGING MSHR THRESHOLD FROM 26 TO 28
CHANGING MSHR THRESHOLD FROM 28 TO 26
CHANGING MSHR THRESHOLD FROM 26 TO 24
CHANGING MSHR THRESHOLD FROM 24 TO 23
CHANGING MSHR THRESHOLD FROM 23 TO 21
CHANGING MSHR THRESHOLD FROM 21 TO 19
CHANGING MSHR THRESHOLD FROM 19 TO 18
CHANGING MSHR THRESHOLD FROM 18 TO 16
CHANGING MSHR THRESHOLD FROM 16 TO 15
CHANGING MSHR THRESHOLD FROM 15 TO 13
CHANGING MSHR THRESHOLD FROM 13 TO 11
CHANGING MSHR THRESHOLD FROM 11 TO 10
CHANGING MSHR THRESHOLD FROM 10 TO 8
CHANGING MSHR THRESHOLD FROM 8 TO 10
CHANGING MSHR THRESHOLD FROM 10 TO 11
CHANGING MSHR THRESHOLD FROM 11 TO 13
CHANGING MSHR THRESHOLD FROM 13 TO 15
CHANGING MSHR THRESHOLD FROM 15 TO 16
CHANGING MSHR THRESHOLD FROM 16 TO 18
CHANGING MSHR THRESHOLD FROM 18 TO 19
CHANGING MSHR THRESHOLD FROM 19 TO 21
CHANGING MSHR THRESHOLD FROM 21 TO 23
CHANGING MSHR THRESHOLD FROM 23 TO 24
CHANGING MSHR THRESHOLD FROM 24 TO 26
CHANGING MSHR THRESHOLD FROM 26 TO 28
OFFSET CHANGED FROM 8 TO -6
Heartbeat CPU 0 instructions: 20000003 cycles: 8019102 heartbeat IPC: 2.53128 cumulative IPC: 2.49405 (Simulation time: 0 hr 0 min 51 sec) 
OFFSET CHANGED FROM -6 TO 3
OFFSET CHANGED FROM 3 TO 3
Heartbeat CPU 0 instructions: 30000002 cycles: 12081859 heartbeat IPC: 2.46138 cumulative IPC: 2.48306 (Simulation time: 0 hr 1 min 16 sec) 
Heartbeat CPU 0 instructions: 40000000 cycles: 16071488 heartbeat IPC: 2.5065 cumulative IPC: 2.48888 (Simulation time: 0 hr 1 min 41 sec) 
OFFSET CHANGED FROM 3 TO 1
Heartbeat CPU 0 instructions: 50000000 cycles: 20026071 heartbeat IPC: 2.52871 cumulative IPC: 2.49675 (Simulation time: 0 hr 2 min 7 sec) 

Warmup complete CPU 0 instructions: 50000004 cycles: 20026072 (Simulation time: 0 hr 2 min 7 sec) 

OFFSET CHANGED FROM 1 TO 4
OFFSET CHANGED FROM 4 TO 3
Heartbeat CPU 0 instructions: 60000001 cycles: 28007555 heartbeat IPC: 1.2529 cumulative IPC: 1.2529 (Simulation time: 0 hr 2 min 28 sec) 
OFFSET CHANGED FROM 3 TO 5
OFFSET CHANGED FROM 5 TO -7
OFFSET CHANGED FROM -7 TO 5
Heartbeat CPU 0 instructions: 70000000 cycles: 36415690 heartbeat IPC: 1.18932 cumulative IPC: 1.22028 (Simulation time: 0 hr 2 min 48 sec) 
OFFSET CHANGED FROM 5 TO 2
OFFSET CHANGED FROM 2 TO 1
OFFSET CHANGED FROM 1 TO 3
OFFSET CHANGED FROM 3 TO 6
Heartbeat CPU 0 instructions: 80000000 cycles: 44941633 heartbeat IPC: 1.17289 cumulative IPC: 1.20407 (Simulation time: 0 hr 3 min 9 sec) 
OFFSET CHANGED FROM 6 TO 3
OFFSET CHANGED FROM 3 TO 7
OFFSET CHANGED FROM 7 TO 4
OFFSET CHANGED FROM 4 TO 5
Heartbeat CPU 0 instructions: 90000001 cycles: 52603017 heartbeat IPC: 1.30525 cumulative IPC: 1.22786 (Simulation time: 0 hr 3 min 29 sec) 
OFFSET CHANGED FROM 5 TO 8
OFFSET CHANGED FROM 8 TO 6
Heartbeat CPU 0 instructions: 100000002 cycles: 59788770 heartbeat IPC: 1.39164 cumulative IPC: 1.25746 (Simulation time: 0 hr 3 min 48 sec) 
OFFSET CHANGED FROM 6 TO 5
OFFSET CHANGED FROM 5 TO 3
OFFSET CHANGED FROM 3 TO 2
OFFSET CHANGED FROM 2 TO 1
OFFSET CHANGED FROM 1 TO 6
Heartbeat CPU 0 instructions: 110000000 cycles: 67610405 heartbeat IPC: 1.2785 cumulative IPC: 1.26092 (Simulation time: 0 hr 4 min 8 sec) 
OFFSET CHANGED FROM 6 TO 8
OFFSET CHANGED FROM 8 TO 5
OFFSET CHANGED FROM 5 TO 5
OFFSET CHANGED FROM 5 TO 4
Heartbeat CPU 0 instructions: 120000001 cycles: 75244257 heartbeat IPC: 1.30995 cumulative IPC: 1.2677 (Simulation time: 0 hr 4 min 28 sec) 
OFFSET CHANGED FROM 4 TO 5
OFFSET CHANGED FROM 5 TO 4
OFFSET CHANGED FROM 4 TO 6
OFFSET CHANGED FROM 6 TO 4
OFFSET CHANGED FROM 4 TO 3
Heartbeat CPU 0 instructions: 130000001 cycles: 82934943 heartbeat IPC: 1.30027 cumulative IPC: 1.27168 (Simulation time: 0 hr 4 min 48 sec) 
OFFSET CHANGED FROM 3 TO 2
Heartbeat CPU 0 instructions: 140000003 cycles: 90077106 heartbeat IPC: 1.40014 cumulative IPC: 1.28478 (Simulation time: 0 hr 5 min 8 sec) 
OFFSET CHANGED FROM 2 TO 2
Heartbeat CPU 0 instructions: 150000000 cycles: 96946752 heartbeat IPC: 1.45568 cumulative IPC: 1.30004 (Simulation time: 0 hr 5 min 28 sec) 
OFFSET CHANGED FROM 2 TO 3
Heartbeat CPU 0 instructions: 160000001 cycles: 104262719 heartbeat IPC: 1.36687 cumulative IPC: 1.30584 (Simulation time: 0 hr 5 min 48 sec) 
OFFSET CHANGED FROM 3 TO 1
Heartbeat CPU 0 instructions: 170000002 cycles: 111559704 heartbeat IPC: 1.37043 cumulative IPC: 1.31099 (Simulation time: 0 hr 6 min 9 sec) 
OFFSET CHANGED FROM 1 TO 3
OFFSET CHANGED FROM 3 TO 1
OFFSET CHANGED FROM 1 TO 3
OFFSET CHANGED FROM 3 TO 14
Heartbeat CPU 0 instructions: 180000002 cycles: 119831904 heartbeat IPC: 1.20887 cumulative IPC: 1.30253 (Simulation time: 0 hr 6 min 29 sec) 
OFFSET CHANGED FROM 14 TO 2
OFFSET CHANGED FROM 2 TO 2
OFFSET CHANGED FROM 2 TO 9
OFFSET CHANGED FROM 9 TO 6
OFFSET CHANGED FROM 6 TO 5
Heartbeat CPU 0 instructions: 190000000 cycles: 128317709 heartbeat IPC: 1.17844 cumulative IPC: 1.29281 (Simulation time: 0 hr 6 min 49 sec) 
OFFSET CHANGED FROM 5 TO 6
OFFSET CHANGED FROM 6 TO 2
OFFSET CHANGED FROM 2 TO 5
OFFSET CHANGED FROM 5 TO 1
OFFSET CHANGED FROM 1 TO 4
Heartbeat CPU 0 instructions: 200000000 cycles: 136852821 heartbeat IPC: 1.17163 cumulative IPC: 1.28395 (Simulation time: 0 hr 7 min 10 sec) 
OFFSET CHANGED FROM 4 TO 1
OFFSET CHANGED FROM 1 TO 5
OFFSET CHANGED FROM 5 TO 4
Heartbeat CPU 0 instructions: 210000000 cycles: 144659007 heartbeat IPC: 1.28104 cumulative IPC: 1.28377 (Simulation time: 0 hr 7 min 30 sec) 
OFFSET CHANGED FROM 4 TO -4
OFFSET CHANGED FROM -4 TO 2
Heartbeat CPU 0 instructions: 220000000 cycles: 151928873 heartbeat IPC: 1.37554 cumulative IPC: 1.28883 (Simulation time: 0 hr 7 min 49 sec) 
OFFSET CHANGED FROM 2 TO 9
OFFSET CHANGED FROM 9 TO 2
OFFSET CHANGED FROM 2 TO 1
OFFSET CHANGED FROM 1 TO 4
OFFSET CHANGED FROM 4 TO 1
Heartbeat CPU 0 instructions: 230000000 cycles: 159191857 heartbeat IPC: 1.37684 cumulative IPC: 1.29342 (Simulation time: 0 hr 8 min 9 sec) 
OFFSET CHANGED FROM 1 TO -4
OFFSET CHANGED FROM -4 TO 2
OFFSET CHANGED FROM 2 TO 3
OFFSET CHANGED FROM 3 TO 9
Heartbeat CPU 0 instructions: 240000000 cycles: 166719560 heartbeat IPC: 1.32843 cumulative IPC: 1.29522 (Simulation time: 0 hr 8 min 28 sec) 
OFFSET CHANGED FROM 9 TO 7
OFFSET CHANGED FROM 7 TO 3
OFFSET CHANGED FROM 3 TO 9
Heartbeat CPU 0 instructions: 250000001 cycles: 174409664 heartbeat IPC: 1.30037 cumulative IPC: 1.29547 (Simulation time: 0 hr 8 min 48 sec) 
OFFSET CHANGED FROM 9 TO 2
OFFSET CHANGED FROM 2 TO 6
OFFSET CHANGED FROM 6 TO 8
OFFSET CHANGED FROM 8 TO 3
OFFSET CHANGED FROM 3 TO 4
Heartbeat CPU 0 instructions: 260000001 cycles: 181915848 heartbeat IPC: 1.33223 cumulative IPC: 1.29718 (Simulation time: 0 hr 9 min 8 sec) 
OFFSET CHANGED FROM 4 TO 7
Heartbeat CPU 0 instructions: 270000003 cycles: 189791894 heartbeat IPC: 1.26967 cumulative IPC: 1.2959 (Simulation time: 0 hr 9 min 28 sec) 
OFFSET CHANGED FROM 7 TO 6
Heartbeat CPU 0 instructions: 280000000 cycles: 197674004 heartbeat IPC: 1.2687 cumulative IPC: 1.2947 (Simulation time: 0 hr 9 min 48 sec) 
Heartbeat CPU 0 instructions: 290000000 cycles: 205485558 heartbeat IPC: 1.28016 cumulative IPC: 1.29408 (Simulation time: 0 hr 10 min 9 sec) 
OFFSET CHANGED FROM 6 TO 1
Heartbeat CPU 0 instructions: 300000001 cycles: 212910428 heartbeat IPC: 1.34683 cumulative IPC: 1.29611 (Simulation time: 0 hr 10 min 28 sec) 
Finished CPU 0 instructions: 250000001 cycles: 192884359 cumulative IPC: 1.29611 (Simulation time: 0 hr 10 min 28 sec) 

ChampSim completed all CPUs

Region of Interest Statistics

CPU 0 cumulative IPC: 1.29611 instructions: 250000001 cycles: 192884359
L1D TOTAL     ACCESS:   83995164  HIT:   83715891  MISS:     279273
L1D LOAD      ACCESS:   54256526  HIT:   54031447  MISS:     225079
L1D RFO       ACCESS:   29738638  HIT:   29684444  MISS:      54194
L1D PREFETCH  ACCESS:          0  HIT:          0  MISS:          0
L1D WRITEBACK ACCESS:          0  HIT:          0  MISS:          0
L1D PREFETCH  REQUESTED:          0  ISSUED:          0  USEFUL:          0  USELESS:          0
L1D AVERAGE MISS LATENCY: 15.1762 cycles
L1I TOTAL     ACCESS:   38663445  HIT:   38556428  MISS:     107017
L1I LOAD      ACCESS:   38609417  HIT:   38531733  MISS:      77684
L1I RFO       ACCESS:          0  HIT:          0  MISS:          0
L1I PREFETCH  ACCESS:      54028  HIT:      24695  MISS:      29333
L1I WRITEBACK ACCESS:          0  HIT:          0  MISS:          0
L1I PREFETCH  REQUESTED:      98709  ISSUED:      98709  USEFUL:      22225  USELESS:       7108
L1I AVERAGE MISS LATENCY: 12.723 cycles
L2C TOTAL     ACCESS:     759738  HIT:     758037  MISS:       1701
L2C LOAD      ACCESS:     292199  HIT:     291931  MISS:        268
L2C RFO       ACCESS:      53989  HIT:      53926  MISS:         63
L2C PREFETCH  ACCESS:     347929  HIT:     346559  MISS:       1370
L2C WRITEBACK ACCESS:      65621  HIT:      65621  MISS:          0
L2C PREFETCH  REQUESTED:     315405  ISSUED:     315405  USEFUL:        910  USELESS:         18
L2C AVERAGE MISS LATENCY: 152.637 cycles
LLC TOTAL     ACCESS:       1702  HIT:         15  MISS:       1687
LLC LOAD      ACCESS:        251  HIT:          3  MISS:        248
LLC RFO       ACCESS:         63  HIT:          0  MISS:         63
LLC PREFETCH  ACCESS:       1387  HIT:         11  MISS:       1376
LLC WRITEBACK ACCESS:          1  HIT:          1  MISS:          0
LLC PREFETCH  REQUESTED:          0  ISSUED:          0  USEFUL:          2  USELESS:          0
LLC AVERAGE MISS LATENCY: 122.768 cycles
Major fault: 0 Minor fault: 184
CPU 0 L1I next line prefetcher final stats
CPU 0 L2C best offset prefetcher final stats

DRAM Statistics
 CHANNEL 0
 RQ ROW_BUFFER_HIT:        879  ROW_BUFFER_MISS:        808
 DBUS_CONGESTED:        375
 WQ ROW_BUFFER_HIT:          0  ROW_BUFFER_MISS:          0  FULL:          0

 AVG_CONGESTED_CYCLE: 5

CPU 0 Branch Prediction Accuracy: 92.4671% MPKI: 7.0005 Average ROB Occupancy at Mispredict: 71.2871

Branch types
NOT_BRANCH: 226766699 90.7067%
BRANCH_DIRECT_JUMP: 2004180 0.801672%
BRANCH_INDIRECT: 422670 0.169068%
BRANCH_CONDITIONAL: 18495223 7.39809%
BRANCH_DIRECT_CALL: 1155484 0.462194%
BRANCH_INDIRECT_CALL: 0 0%
BRANCH_RETURN: 1155484 0.462194%
BRANCH_OTHER: 0 0%

