
*** ChampSim Multicore Out-of-Order Simulator ***

Warmup Instructions: 50000000
Simulation Instructions: 250000000
Number of CPUs: 1
LLC sets: 2048
LLC ways: 16
Off-chip DRAM Size: 4096 MB Channels: 1 Width: 64-bit Data Rate: 3200 MT/s

CPU 0 runs /home/wezelis2/ECE511_Project/ChampSim/dpc3_traces/429.mcf-217B.champsimtrace.xz
CPU 0 Bimodal branch predictor
CPU 0 L1I next line prefetcher
INIT BEST RECENT REQUEST TABLE MODULE
INIT DELAY QUEUE MODULE
INIT PREFETCH THROTTLE MODULE
INIT OFFSET SCORE MODULE
INIT BEST OFFSET PREFETCHER
OFFSET CHANGED FROM 1 TO -3
OFFSET CHANGED FROM -3 TO -3
OFFSET CHANGED FROM -3 TO -6
OFFSET CHANGED FROM -6 TO -3
OFFSET CHANGED FROM -3 TO -3
OFFSET CHANGED FROM -3 TO -3
OFFSET CHANGED FROM -3 TO -6
OFFSET CHANGED FROM -6 TO -9
OFFSET CHANGED FROM -9 TO -2
OFFSET CHANGED FROM -2 TO -3
OFFSET CHANGED FROM -3 TO -3
OFFSET CHANGED FROM -3 TO -3
OFFSET CHANGED FROM -3 TO -3
OFFSET CHANGED FROM -3 TO -3
OFFSET CHANGED FROM -3 TO -3
OFFSET CHANGED FROM -3 TO -3
OFFSET CHANGED FROM -3 TO -6
OFFSET CHANGED FROM -6 TO -6
OFFSET CHANGED FROM -6 TO -3
OFFSET CHANGED FROM -3 TO -3
OFFSET CHANGED FROM -3 TO -3
OFFSET CHANGED FROM -3 TO -3
OFFSET CHANGED FROM -3 TO -3
OFFSET CHANGED FROM -3 TO -9
OFFSET CHANGED FROM -9 TO -9
OFFSET CHANGED FROM -9 TO -9
OFFSET CHANGED FROM -9 TO -12
OFFSET CHANGED FROM -12 TO -9
OFFSET CHANGED FROM -9 TO -9
OFFSET CHANGED FROM -9 TO -3
OFFSET CHANGED FROM -3 TO -3
OFFSET CHANGED FROM -3 TO -3
OFFSET CHANGED FROM -3 TO -3
OFFSET CHANGED FROM -3 TO -3
OFFSET CHANGED FROM -3 TO -3
OFFSET CHANGED FROM -3 TO -3
OFFSET CHANGED FROM -3 TO -3
OFFSET CHANGED FROM -3 TO -3
OFFSET CHANGED FROM -3 TO -3
OFFSET CHANGED FROM -3 TO -3
OFFSET CHANGED FROM -3 TO -3
OFFSET CHANGED FROM -3 TO -3
OFFSET CHANGED FROM -3 TO -3
OFFSET CHANGED FROM -3 TO -3
OFFSET CHANGED FROM -3 TO -3
OFFSET CHANGED FROM -3 TO -3
OFFSET CHANGED FROM -3 TO -6
OFFSET CHANGED FROM -6 TO -3
OFFSET CHANGED FROM -3 TO -3
OFFSET CHANGED FROM -3 TO -6
OFFSET CHANGED FROM -6 TO -3
OFFSET CHANGED FROM -3 TO -6
OFFSET CHANGED FROM -6 TO -6
OFFSET CHANGED FROM -6 TO -3
OFFSET CHANGED FROM -3 TO -3
OFFSET CHANGED FROM -3 TO -3
OFFSET CHANGED FROM -3 TO -3
OFFSET CHANGED FROM -3 TO -3
OFFSET CHANGED FROM -3 TO -3
OFFSET CHANGED FROM -3 TO -3
OFFSET CHANGED FROM -3 TO -3
Heartbeat CPU 0 instructions: 10000000 cycles: 3668763 heartbeat IPC: 2.72571 cumulative IPC: 2.72571 (Simulation time: 0 hr 0 min 25 sec) 
OFFSET CHANGED FROM -3 TO -3
OFFSET CHANGED FROM -3 TO -3
OFFSET CHANGED FROM -3 TO -3
OFFSET CHANGED FROM -3 TO -3
OFFSET CHANGED FROM -3 TO -9
OFFSET CHANGED FROM -9 TO -3
OFFSET CHANGED FROM -3 TO -3
OFFSET CHANGED FROM -3 TO -3
OFFSET CHANGED FROM -3 TO -3
OFFSET CHANGED FROM -3 TO -3
OFFSET CHANGED FROM -3 TO -3
OFFSET CHANGED FROM -3 TO -3
OFFSET CHANGED FROM -3 TO -9
OFFSET CHANGED FROM -9 TO -6
OFFSET CHANGED FROM -6 TO -3
OFFSET CHANGED FROM -3 TO -9
OFFSET CHANGED FROM -9 TO -3
OFFSET CHANGED FROM -3 TO -3
OFFSET CHANGED FROM -3 TO -3
OFFSET CHANGED FROM -3 TO -3
OFFSET CHANGED FROM -3 TO -3
OFFSET CHANGED FROM -3 TO -3
OFFSET CHANGED FROM -3 TO -3
OFFSET CHANGED FROM -3 TO -3
OFFSET CHANGED FROM -3 TO -3
OFFSET CHANGED FROM -3 TO -3
OFFSET CHANGED FROM -3 TO -3
OFFSET CHANGED FROM -3 TO -3
OFFSET CHANGED FROM -3 TO -3
OFFSET CHANGED FROM -3 TO -3
OFFSET CHANGED FROM -3 TO -3
OFFSET CHANGED FROM -3 TO -3
OFFSET CHANGED FROM -3 TO -3
OFFSET CHANGED FROM -3 TO -3
OFFSET CHANGED FROM -3 TO -3
OFFSET CHANGED FROM -3 TO -3
OFFSET CHANGED FROM -3 TO -3
OFFSET CHANGED FROM -3 TO -3
OFFSET CHANGED FROM -3 TO -3
OFFSET CHANGED FROM -3 TO -3
OFFSET CHANGED FROM -3 TO -3
OFFSET CHANGED FROM -3 TO -3
OFFSET CHANGED FROM -3 TO -3
OFFSET CHANGED FROM -3 TO -3
OFFSET CHANGED FROM -3 TO -3
OFFSET CHANGED FROM -3 TO -3
OFFSET CHANGED FROM -3 TO -3
OFFSET CHANGED FROM -3 TO -6
OFFSET CHANGED FROM -6 TO -9
OFFSET CHANGED FROM -9 TO -3
OFFSET CHANGED FROM -3 TO -3
OFFSET CHANGED FROM -3 TO -9
OFFSET CHANGED FROM -9 TO -3
OFFSET CHANGED FROM -3 TO -3
OFFSET CHANGED FROM -3 TO -3
OFFSET CHANGED FROM -3 TO -3
OFFSET CHANGED FROM -3 TO -3
OFFSET CHANGED FROM -3 TO -3
OFFSET CHANGED FROM -3 TO -3
OFFSET CHANGED FROM -3 TO -3
OFFSET CHANGED FROM -3 TO -3
OFFSET CHANGED FROM -3 TO -3
OFFSET CHANGED FROM -3 TO -3
OFFSET CHANGED FROM -3 TO -3
OFFSET CHANGED FROM -3 TO -3
OFFSET CHANGED FROM -3 TO -9
OFFSET CHANGED FROM -9 TO -9
OFFSET CHANGED FROM -9 TO -3
OFFSET CHANGED FROM -3 TO -3
OFFSET CHANGED FROM -3 TO -3
OFFSET CHANGED FROM -3 TO -3
OFFSET CHANGED FROM -3 TO -3
OFFSET CHANGED FROM -3 TO -9
OFFSET CHANGED FROM -9 TO -9
OFFSET CHANGED FROM -9 TO -3
OFFSET CHANGED FROM -3 TO -3
OFFSET CHANGED FROM -3 TO -3
OFFSET CHANGED FROM -3 TO -3
OFFSET CHANGED FROM -3 TO -3
OFFSET CHANGED FROM -3 TO -3
OFFSET CHANGED FROM -3 TO -15
OFFSET CHANGED FROM -15 TO -12
OFFSET CHANGED FROM -12 TO -9
OFFSET CHANGED FROM -9 TO -3
OFFSET CHANGED FROM -3 TO -3
OFFSET CHANGED FROM -3 TO -3
OFFSET CHANGED FROM -3 TO -3
OFFSET CHANGED FROM -3 TO -3
OFFSET CHANGED FROM -3 TO -3
OFFSET CHANGED FROM -3 TO -3
OFFSET CHANGED FROM -3 TO -3
OFFSET CHANGED FROM -3 TO -9
OFFSET CHANGED FROM -9 TO -3
OFFSET CHANGED FROM -3 TO -3
OFFSET CHANGED FROM -3 TO -3
OFFSET CHANGED FROM -3 TO -6
OFFSET CHANGED FROM -6 TO -3
OFFSET CHANGED FROM -3 TO -3
OFFSET CHANGED FROM -3 TO -3
OFFSET CHANGED FROM -3 TO -3
OFFSET CHANGED FROM -3 TO -3
OFFSET CHANGED FROM -3 TO -3
OFFSET CHANGED FROM -3 TO -3
OFFSET CHANGED FROM -3 TO -6
OFFSET CHANGED FROM -6 TO -3
OFFSET CHANGED FROM -3 TO -3
OFFSET CHANGED FROM -3 TO -3
OFFSET CHANGED FROM -3 TO -3
OFFSET CHANGED FROM -3 TO -3
OFFSET CHANGED FROM -3 TO -3
OFFSET CHANGED FROM -3 TO -9
OFFSET CHANGED FROM -9 TO -3
OFFSET CHANGED FROM -3 TO -3
OFFSET CHANGED FROM -3 TO -3
OFFSET CHANGED FROM -3 TO -3
OFFSET CHANGED FROM -3 TO -3
OFFSET CHANGED FROM -3 TO -3
OFFSET CHANGED FROM -3 TO -3
OFFSET CHANGED FROM -3 TO -3
OFFSET CHANGED FROM -3 TO -3
OFFSET CHANGED FROM -3 TO -3
OFFSET CHANGED FROM -3 TO -3
OFFSET CHANGED FROM -3 TO -3
OFFSET CHANGED FROM -3 TO -3
OFFSET CHANGED FROM -3 TO -3
OFFSET CHANGED FROM -3 TO -3
OFFSET CHANGED FROM -3 TO -3
OFFSET CHANGED FROM -3 TO -3
OFFSET CHANGED FROM -3 TO -3
OFFSET CHANGED FROM -3 TO -3
OFFSET CHANGED FROM -3 TO -3
OFFSET CHANGED FROM -3 TO -3
OFFSET CHANGED FROM -3 TO -3
OFFSET CHANGED FROM -3 TO -3
OFFSET CHANGED FROM -3 TO -3
OFFSET CHANGED FROM -3 TO -3
OFFSET CHANGED FROM -3 TO -3
OFFSET CHANGED FROM -3 TO -3
OFFSET CHANGED FROM -3 TO -3
OFFSET CHANGED FROM -3 TO -9
OFFSET CHANGED FROM -9 TO -3
OFFSET CHANGED FROM -3 TO -9
OFFSET CHANGED FROM -9 TO -9
OFFSET CHANGED FROM -9 TO -3
OFFSET CHANGED FROM -3 TO -9
OFFSET CHANGED FROM -9 TO -9
OFFSET CHANGED FROM -9 TO -3
OFFSET CHANGED FROM -3 TO -3
OFFSET CHANGED FROM -3 TO -3
OFFSET CHANGED FROM -3 TO -3
OFFSET CHANGED FROM -3 TO -9
OFFSET CHANGED FROM -9 TO -9
OFFSET CHANGED FROM -9 TO -3
OFFSET CHANGED FROM -3 TO -3
OFFSET CHANGED FROM -3 TO -3
OFFSET CHANGED FROM -3 TO -3
OFFSET CHANGED FROM -3 TO -3
OFFSET CHANGED FROM -3 TO -3
OFFSET CHANGED FROM -3 TO -3
OFFSET CHANGED FROM -3 TO -3
OFFSET CHANGED FROM -3 TO -3
OFFSET CHANGED FROM -3 TO -3
OFFSET CHANGED FROM -3 TO -3
OFFSET CHANGED FROM -3 TO -3
OFFSET CHANGED FROM -3 TO -3
OFFSET CHANGED FROM -3 TO -9
OFFSET CHANGED FROM -9 TO -3
OFFSET CHANGED FROM -3 TO -3
OFFSET CHANGED FROM -3 TO -3
OFFSET CHANGED FROM -3 TO -3
OFFSET CHANGED FROM -3 TO -3
OFFSET CHANGED FROM -3 TO -3
OFFSET CHANGED FROM -3 TO -3
OFFSET CHANGED FROM -3 TO -3
OFFSET CHANGED FROM -3 TO -3
OFFSET CHANGED FROM -3 TO -3
OFFSET CHANGED FROM -3 TO -3
OFFSET CHANGED FROM -3 TO -3
OFFSET CHANGED FROM -3 TO -3
OFFSET CHANGED FROM -3 TO -3
OFFSET CHANGED FROM -3 TO -15
OFFSET CHANGED FROM -15 TO -12
OFFSET CHANGED FROM -12 TO -12
OFFSET CHANGED FROM -12 TO -3
OFFSET CHANGED FROM -3 TO -3
OFFSET CHANGED FROM -3 TO -3
OFFSET CHANGED FROM -3 TO -9
OFFSET CHANGED FROM -9 TO -3
OFFSET CHANGED FROM -3 TO -3
OFFSET CHANGED FROM -3 TO -3
OFFSET CHANGED FROM -3 TO -3
OFFSET CHANGED FROM -3 TO -3
OFFSET CHANGED FROM -3 TO -3
OFFSET CHANGED FROM -3 TO -3
OFFSET CHANGED FROM -3 TO -3
OFFSET CHANGED FROM -3 TO -3
OFFSET CHANGED FROM -3 TO -3
OFFSET CHANGED FROM -3 TO -3
OFFSET CHANGED FROM -3 TO -3
OFFSET CHANGED FROM -3 TO -3
OFFSET CHANGED FROM -3 TO -3
OFFSET CHANGED FROM -3 TO -3
OFFSET CHANGED FROM -3 TO -3
OFFSET CHANGED FROM -3 TO -3
OFFSET CHANGED FROM -3 TO -3
OFFSET CHANGED FROM -3 TO -3
OFFSET CHANGED FROM -3 TO -3
OFFSET CHANGED FROM -3 TO -15
OFFSET CHANGED FROM -15 TO -3
OFFSET CHANGED FROM -3 TO -3
OFFSET CHANGED FROM -3 TO -3
OFFSET CHANGED FROM -3 TO -3
OFFSET CHANGED FROM -3 TO -3
OFFSET CHANGED FROM -3 TO -3
OFFSET CHANGED FROM -3 TO -3
OFFSET CHANGED FROM -3 TO -3
OFFSET CHANGED FROM -3 TO -3
OFFSET CHANGED FROM -3 TO -3
OFFSET CHANGED FROM -3 TO -3
OFFSET CHANGED FROM -3 TO -3
OFFSET CHANGED FROM -3 TO -3
OFFSET CHANGED FROM -3 TO -3
OFFSET CHANGED FROM -3 TO -3
OFFSET CHANGED FROM -3 TO -3
OFFSET CHANGED FROM -3 TO -3
OFFSET CHANGED FROM -3 TO -3
OFFSET CHANGED FROM -3 TO -3
OFFSET CHANGED FROM -3 TO -3
OFFSET CHANGED FROM -3 TO -3
OFFSET CHANGED FROM -3 TO -3
OFFSET CHANGED FROM -3 TO -9
OFFSET CHANGED FROM -9 TO -9
OFFSET CHANGED FROM -9 TO -6
OFFSET CHANGED FROM -6 TO -3
OFFSET CHANGED FROM -3 TO -3
OFFSET CHANGED FROM -3 TO -3
OFFSET CHANGED FROM -3 TO -3
OFFSET CHANGED FROM -3 TO -3
OFFSET CHANGED FROM -3 TO -3
OFFSET CHANGED FROM -3 TO -3
OFFSET CHANGED FROM -3 TO -3
OFFSET CHANGED FROM -3 TO -9
OFFSET CHANGED FROM -9 TO -3
OFFSET CHANGED FROM -3 TO -3
OFFSET CHANGED FROM -3 TO -3
OFFSET CHANGED FROM -3 TO -3
OFFSET CHANGED FROM -3 TO -3
OFFSET CHANGED FROM -3 TO -3
OFFSET CHANGED FROM -3 TO -3
OFFSET CHANGED FROM -3 TO -3
OFFSET CHANGED FROM -3 TO -3
OFFSET CHANGED FROM -3 TO -3
OFFSET CHANGED FROM -3 TO -3
OFFSET CHANGED FROM -3 TO -3
OFFSET CHANGED FROM -3 TO -9
OFFSET CHANGED FROM -9 TO -3
OFFSET CHANGED FROM -3 TO -3
OFFSET CHANGED FROM -3 TO -3
OFFSET CHANGED FROM -3 TO -3
OFFSET CHANGED FROM -3 TO -3
OFFSET CHANGED FROM -3 TO -3
OFFSET CHANGED FROM -3 TO -3
OFFSET CHANGED FROM -3 TO -3
OFFSET CHANGED FROM -3 TO -3
OFFSET CHANGED FROM -3 TO -3
OFFSET CHANGED FROM -3 TO -3
OFFSET CHANGED FROM -3 TO -3
OFFSET CHANGED FROM -3 TO -3
OFFSET CHANGED FROM -3 TO -3
OFFSET CHANGED FROM -3 TO -6
OFFSET CHANGED FROM -6 TO -3
OFFSET CHANGED FROM -3 TO -3
OFFSET CHANGED FROM -3 TO -3
OFFSET CHANGED FROM -3 TO -3
OFFSET CHANGED FROM -3 TO -3
OFFSET CHANGED FROM -3 TO -3
OFFSET CHANGED FROM -3 TO -3
OFFSET CHANGED FROM -3 TO -9
OFFSET CHANGED FROM -9 TO -9
OFFSET CHANGED FROM -9 TO -3
OFFSET CHANGED FROM -3 TO -3
OFFSET CHANGED FROM -3 TO -3
OFFSET CHANGED FROM -3 TO -3
OFFSET CHANGED FROM -3 TO -9
OFFSET CHANGED FROM -9 TO -3
OFFSET CHANGED FROM -3 TO -3
OFFSET CHANGED FROM -3 TO -3
OFFSET CHANGED FROM -3 TO -6
OFFSET CHANGED FROM -6 TO -3
OFFSET CHANGED FROM -3 TO -3
OFFSET CHANGED FROM -3 TO -3
OFFSET CHANGED FROM -3 TO -3
OFFSET CHANGED FROM -3 TO -3
OFFSET CHANGED FROM -3 TO -3
OFFSET CHANGED FROM -3 TO -3
OFFSET CHANGED FROM -3 TO -3
OFFSET CHANGED FROM -3 TO -3
OFFSET CHANGED FROM -3 TO -3
OFFSET CHANGED FROM -3 TO -3
OFFSET CHANGED FROM -3 TO -3
OFFSET CHANGED FROM -3 TO -3
OFFSET CHANGED FROM -3 TO -9
OFFSET CHANGED FROM -9 TO -3
OFFSET CHANGED FROM -3 TO -3
OFFSET CHANGED FROM -3 TO -3
OFFSET CHANGED FROM -3 TO -3
OFFSET CHANGED FROM -3 TO -3
OFFSET CHANGED FROM -3 TO -3
OFFSET CHANGED FROM -3 TO -3
OFFSET CHANGED FROM -3 TO -3
OFFSET CHANGED FROM -3 TO -3
OFFSET CHANGED FROM -3 TO -3
OFFSET CHANGED FROM -3 TO -3
OFFSET CHANGED FROM -3 TO -3
OFFSET CHANGED FROM -3 TO -3
OFFSET CHANGED FROM -3 TO -9
OFFSET CHANGED FROM -9 TO -3
OFFSET CHANGED FROM -3 TO -3
OFFSET CHANGED FROM -3 TO -3
OFFSET CHANGED FROM -3 TO -3
OFFSET CHANGED FROM -3 TO -3
OFFSET CHANGED FROM -3 TO -3
OFFSET CHANGED FROM -3 TO -3
OFFSET CHANGED FROM -3 TO -3
OFFSET CHANGED FROM -3 TO -3
OFFSET CHANGED FROM -3 TO -9
OFFSET CHANGED FROM -9 TO -3
OFFSET CHANGED FROM -3 TO -3
OFFSET CHANGED FROM -3 TO -3
OFFSET CHANGED FROM -3 TO -3
OFFSET CHANGED FROM -3 TO -3
OFFSET CHANGED FROM -3 TO -3
OFFSET CHANGED FROM -3 TO -3
OFFSET CHANGED FROM -3 TO -3
OFFSET CHANGED FROM -3 TO -3
OFFSET CHANGED FROM -3 TO -3
OFFSET CHANGED FROM -3 TO -3
OFFSET CHANGED FROM -3 TO -3
OFFSET CHANGED FROM -3 TO -3
OFFSET CHANGED FROM -3 TO -3
OFFSET CHANGED FROM -3 TO -3
OFFSET CHANGED FROM -3 TO -3
OFFSET CHANGED FROM -3 TO -3
OFFSET CHANGED FROM -3 TO -3
OFFSET CHANGED FROM -3 TO -3
OFFSET CHANGED FROM -3 TO -3
OFFSET CHANGED FROM -3 TO -3
OFFSET CHANGED FROM -3 TO -3
OFFSET CHANGED FROM -3 TO -9
OFFSET CHANGED FROM -9 TO -12
OFFSET CHANGED FROM -12 TO -3
OFFSET CHANGED FROM -3 TO -3
OFFSET CHANGED FROM -3 TO -3
OFFSET CHANGED FROM -3 TO -3
OFFSET CHANGED FROM -3 TO -9
OFFSET CHANGED FROM -9 TO -9
OFFSET CHANGED FROM -9 TO -6
OFFSET CHANGED FROM -6 TO -3
OFFSET CHANGED FROM -3 TO -3
OFFSET CHANGED FROM -3 TO -3
OFFSET CHANGED FROM -3 TO -3
OFFSET CHANGED FROM -3 TO -9
OFFSET CHANGED FROM -9 TO -3
OFFSET CHANGED FROM -3 TO -3
OFFSET CHANGED FROM -3 TO -3
OFFSET CHANGED FROM -3 TO -3
OFFSET CHANGED FROM -3 TO -9
OFFSET CHANGED FROM -9 TO -3
OFFSET CHANGED FROM -3 TO -15
OFFSET CHANGED FROM -15 TO -3
OFFSET CHANGED FROM -3 TO -3
OFFSET CHANGED FROM -3 TO -3
OFFSET CHANGED FROM -3 TO -3
OFFSET CHANGED FROM -3 TO -3
OFFSET CHANGED FROM -3 TO -3
OFFSET CHANGED FROM -3 TO -3
OFFSET CHANGED FROM -3 TO -3
OFFSET CHANGED FROM -3 TO -3
OFFSET CHANGED FROM -3 TO -9
OFFSET CHANGED FROM -9 TO -3
OFFSET CHANGED FROM -3 TO -3
OFFSET CHANGED FROM -3 TO -3
OFFSET CHANGED FROM -3 TO -3
OFFSET CHANGED FROM -3 TO -9
OFFSET CHANGED FROM -9 TO -6
OFFSET CHANGED FROM -6 TO -3
OFFSET CHANGED FROM -3 TO -3
OFFSET CHANGED FROM -3 TO -3
OFFSET CHANGED FROM -3 TO -3
OFFSET CHANGED FROM -3 TO -3
OFFSET CHANGED FROM -3 TO -3
OFFSET CHANGED FROM -3 TO -3
OFFSET CHANGED FROM -3 TO -3
OFFSET CHANGED FROM -3 TO -3
OFFSET CHANGED FROM -3 TO -3
OFFSET CHANGED FROM -3 TO -3
OFFSET CHANGED FROM -3 TO -3
OFFSET CHANGED FROM -3 TO -3
OFFSET CHANGED FROM -3 TO -3
OFFSET CHANGED FROM -3 TO -3
OFFSET CHANGED FROM -3 TO -3
OFFSET CHANGED FROM -3 TO -3
OFFSET CHANGED FROM -3 TO -3
OFFSET CHANGED FROM -3 TO -3
OFFSET CHANGED FROM -3 TO -3
OFFSET CHANGED FROM -3 TO -3
OFFSET CHANGED FROM -3 TO -3
OFFSET CHANGED FROM -3 TO -3
OFFSET CHANGED FROM -3 TO -3
OFFSET CHANGED FROM -3 TO -3
OFFSET CHANGED FROM -3 TO -3
OFFSET CHANGED FROM -3 TO -9
OFFSET CHANGED FROM -9 TO -3
OFFSET CHANGED FROM -3 TO -9
OFFSET CHANGED FROM -9 TO -9
OFFSET CHANGED FROM -9 TO -6
OFFSET CHANGED FROM -6 TO -3
OFFSET CHANGED FROM -3 TO -9
OFFSET CHANGED FROM -9 TO -3
OFFSET CHANGED FROM -3 TO -3
OFFSET CHANGED FROM -3 TO -3
OFFSET CHANGED FROM -3 TO -3
OFFSET CHANGED FROM -3 TO -3
OFFSET CHANGED FROM -3 TO -9
OFFSET CHANGED FROM -9 TO -9
OFFSET CHANGED FROM -9 TO -3
OFFSET CHANGED FROM -3 TO -9
OFFSET CHANGED FROM -9 TO -9
OFFSET CHANGED FROM -9 TO -3
OFFSET CHANGED FROM -3 TO -3
OFFSET CHANGED FROM -3 TO -9
OFFSET CHANGED FROM -9 TO -3
OFFSET CHANGED FROM -3 TO -3
OFFSET CHANGED FROM -3 TO -3
OFFSET CHANGED FROM -3 TO -3
OFFSET CHANGED FROM -3 TO -3
OFFSET CHANGED FROM -3 TO -3
OFFSET CHANGED FROM -3 TO -3
OFFSET CHANGED FROM -3 TO -6
OFFSET CHANGED FROM -6 TO -3
OFFSET CHANGED FROM -3 TO -3
OFFSET CHANGED FROM -3 TO -9
OFFSET CHANGED FROM -9 TO -9
OFFSET CHANGED FROM -9 TO -3
OFFSET CHANGED FROM -3 TO -9
OFFSET CHANGED FROM -9 TO -12
OFFSET CHANGED FROM -12 TO -12
OFFSET CHANGED FROM -12 TO -9
OFFSET CHANGED FROM -9 TO -9
OFFSET CHANGED FROM -9 TO -12
OFFSET CHANGED FROM -12 TO -3
OFFSET CHANGED FROM -3 TO -3
OFFSET CHANGED FROM -3 TO -3
OFFSET CHANGED FROM -3 TO -3
OFFSET CHANGED FROM -3 TO -3
OFFSET CHANGED FROM -3 TO -3
OFFSET CHANGED FROM -3 TO -3
OFFSET CHANGED FROM -3 TO -3
OFFSET CHANGED FROM -3 TO -3
OFFSET CHANGED FROM -3 TO -3
OFFSET CHANGED FROM -3 TO -9
OFFSET CHANGED FROM -9 TO -3
OFFSET CHANGED FROM -3 TO -3
OFFSET CHANGED FROM -3 TO -3
OFFSET CHANGED FROM -3 TO -3
OFFSET CHANGED FROM -3 TO -3
OFFSET CHANGED FROM -3 TO -3
OFFSET CHANGED FROM -3 TO -3
OFFSET CHANGED FROM -3 TO -3
OFFSET CHANGED FROM -3 TO -3
OFFSET CHANGED FROM -3 TO -3
OFFSET CHANGED FROM -3 TO -3
OFFSET CHANGED FROM -3 TO -9
OFFSET CHANGED FROM -9 TO -3
OFFSET CHANGED FROM -3 TO -6
OFFSET CHANGED FROM -6 TO -3
OFFSET CHANGED FROM -3 TO -3
OFFSET CHANGED FROM -3 TO -3
OFFSET CHANGED FROM -3 TO -3
OFFSET CHANGED FROM -3 TO -3
OFFSET CHANGED FROM -3 TO -3
OFFSET CHANGED FROM -3 TO -3
OFFSET CHANGED FROM -3 TO -9
OFFSET CHANGED FROM -9 TO -3
OFFSET CHANGED FROM -3 TO -3
OFFSET CHANGED FROM -3 TO -9
OFFSET CHANGED FROM -9 TO -3
OFFSET CHANGED FROM -3 TO -3
OFFSET CHANGED FROM -3 TO -9
OFFSET CHANGED FROM -9 TO -9
OFFSET CHANGED FROM -9 TO -3
OFFSET CHANGED FROM -3 TO -3
OFFSET CHANGED FROM -3 TO -3
OFFSET CHANGED FROM -3 TO -3
OFFSET CHANGED FROM -3 TO -3
OFFSET CHANGED FROM -3 TO -9
OFFSET CHANGED FROM -9 TO -3
OFFSET CHANGED FROM -3 TO -3
OFFSET CHANGED FROM -3 TO -3
OFFSET CHANGED FROM -3 TO -3
OFFSET CHANGED FROM -3 TO -3
OFFSET CHANGED FROM -3 TO -3
OFFSET CHANGED FROM -3 TO -3
OFFSET CHANGED FROM -3 TO -6
OFFSET CHANGED FROM -6 TO -3
OFFSET CHANGED FROM -3 TO -9
OFFSET CHANGED FROM -9 TO -3
OFFSET CHANGED FROM -3 TO -3
OFFSET CHANGED FROM -3 TO -3
OFFSET CHANGED FROM -3 TO -3
OFFSET CHANGED FROM -3 TO -3
OFFSET CHANGED FROM -3 TO -3
OFFSET CHANGED FROM -3 TO -3
OFFSET CHANGED FROM -3 TO -9
OFFSET CHANGED FROM -9 TO -9
OFFSET CHANGED FROM -9 TO -3
OFFSET CHANGED FROM -3 TO -3
OFFSET CHANGED FROM -3 TO -3
OFFSET CHANGED FROM -3 TO -3
OFFSET CHANGED FROM -3 TO -3
OFFSET CHANGED FROM -3 TO -3
OFFSET CHANGED FROM -3 TO -3
OFFSET CHANGED FROM -3 TO -3
OFFSET CHANGED FROM -3 TO -3
OFFSET CHANGED FROM -3 TO -3
OFFSET CHANGED FROM -3 TO -3
OFFSET CHANGED FROM -3 TO -3
OFFSET CHANGED FROM -3 TO -3
OFFSET CHANGED FROM -3 TO -3
OFFSET CHANGED FROM -3 TO -3
OFFSET CHANGED FROM -3 TO -9
OFFSET CHANGED FROM -9 TO -6
OFFSET CHANGED FROM -6 TO -3
OFFSET CHANGED FROM -3 TO -3
OFFSET CHANGED FROM -3 TO -3
OFFSET CHANGED FROM -3 TO -3
OFFSET CHANGED FROM -3 TO -3
OFFSET CHANGED FROM -3 TO -3
OFFSET CHANGED FROM -3 TO -3
OFFSET CHANGED FROM -3 TO -9
OFFSET CHANGED FROM -9 TO -9
OFFSET CHANGED FROM -9 TO -9
OFFSET CHANGED FROM -9 TO -3
OFFSET CHANGED FROM -3 TO -3
OFFSET CHANGED FROM -3 TO -3
OFFSET CHANGED FROM -3 TO -3
OFFSET CHANGED FROM -3 TO -3
OFFSET CHANGED FROM -3 TO -3
OFFSET CHANGED FROM -3 TO -3
OFFSET CHANGED FROM -3 TO -3
OFFSET CHANGED FROM -3 TO -3
OFFSET CHANGED FROM -3 TO -3
OFFSET CHANGED FROM -3 TO -3
OFFSET CHANGED FROM -3 TO -3
OFFSET CHANGED FROM -3 TO -3
OFFSET CHANGED FROM -3 TO -3
OFFSET CHANGED FROM -3 TO -3
OFFSET CHANGED FROM -3 TO -3
OFFSET CHANGED FROM -3 TO -3
OFFSET CHANGED FROM -3 TO -3
OFFSET CHANGED FROM -3 TO -3
OFFSET CHANGED FROM -3 TO -3
OFFSET CHANGED FROM -3 TO -3
OFFSET CHANGED FROM -3 TO -3
OFFSET CHANGED FROM -3 TO -3
OFFSET CHANGED FROM -3 TO -3
OFFSET CHANGED FROM -3 TO -3
OFFSET CHANGED FROM -3 TO -3
OFFSET CHANGED FROM -3 TO -3
OFFSET CHANGED FROM -3 TO -3
OFFSET CHANGED FROM -3 TO -3
OFFSET CHANGED FROM -3 TO -3
OFFSET CHANGED FROM -3 TO -3
OFFSET CHANGED FROM -3 TO -3
OFFSET CHANGED FROM -3 TO -3
OFFSET CHANGED FROM -3 TO -3
OFFSET CHANGED FROM -3 TO -9
OFFSET CHANGED FROM -9 TO -12
OFFSET CHANGED FROM -12 TO -3
OFFSET CHANGED FROM -3 TO -6
OFFSET CHANGED FROM -6 TO -3
OFFSET CHANGED FROM -3 TO -3
OFFSET CHANGED FROM -3 TO -2
OFFSET CHANGED FROM -2 TO -6
OFFSET CHANGED FROM -6 TO -3
OFFSET CHANGED FROM -3 TO -3
OFFSET CHANGED FROM -3 TO -3
OFFSET CHANGED FROM -3 TO -3
OFFSET CHANGED FROM -3 TO -3
OFFSET CHANGED FROM -3 TO -3
OFFSET CHANGED FROM -3 TO -3
OFFSET CHANGED FROM -3 TO -3
OFFSET CHANGED FROM -3 TO -3
OFFSET CHANGED FROM -3 TO -3
OFFSET CHANGED FROM -3 TO -3
OFFSET CHANGED FROM -3 TO -3
OFFSET CHANGED FROM -3 TO -3
OFFSET CHANGED FROM -3 TO -3
OFFSET CHANGED FROM -3 TO -6
OFFSET CHANGED FROM -6 TO -3
OFFSET CHANGED FROM -3 TO -3
OFFSET CHANGED FROM -3 TO -3
OFFSET CHANGED FROM -3 TO -3
OFFSET CHANGED FROM -3 TO -3
OFFSET CHANGED FROM -3 TO -3
OFFSET CHANGED FROM -3 TO -3
OFFSET CHANGED FROM -3 TO -3
OFFSET CHANGED FROM -3 TO -3
OFFSET CHANGED FROM -3 TO -3
OFFSET CHANGED FROM -3 TO -3
OFFSET CHANGED FROM -3 TO -3
OFFSET CHANGED FROM -3 TO -3
OFFSET CHANGED FROM -3 TO -9
OFFSET CHANGED FROM -9 TO -3
OFFSET CHANGED FROM -3 TO -3
OFFSET CHANGED FROM -3 TO -3
OFFSET CHANGED FROM -3 TO -9
OFFSET CHANGED FROM -9 TO -9
OFFSET CHANGED FROM -9 TO -6
OFFSET CHANGED FROM -6 TO -3
OFFSET CHANGED FROM -3 TO -3
OFFSET CHANGED FROM -3 TO -3
OFFSET CHANGED FROM -3 TO -3
OFFSET CHANGED FROM -3 TO -3
OFFSET CHANGED FROM -3 TO -3
OFFSET CHANGED FROM -3 TO -3
OFFSET CHANGED FROM -3 TO -3
OFFSET CHANGED FROM -3 TO -3
OFFSET CHANGED FROM -3 TO -3
Heartbeat CPU 0 instructions: 20000002 cycles: 8645429 heartbeat IPC: 2.00938 cumulative IPC: 2.31336 (Simulation time: 0 hr 0 min 53 sec) 
OFFSET CHANGED FROM -3 TO -3
OFFSET CHANGED FROM -3 TO -9
OFFSET CHANGED FROM -9 TO -9
OFFSET CHANGED FROM -9 TO -6
OFFSET CHANGED FROM -6 TO -3
OFFSET CHANGED FROM -3 TO -3
OFFSET CHANGED FROM -3 TO -3
OFFSET CHANGED FROM -3 TO -9
OFFSET CHANGED FROM -9 TO -6
OFFSET CHANGED FROM -6 TO -3
OFFSET CHANGED FROM -3 TO -3
OFFSET CHANGED FROM -3 TO -3
OFFSET CHANGED FROM -3 TO -3
OFFSET CHANGED FROM -3 TO -3
OFFSET CHANGED FROM -3 TO -3
OFFSET CHANGED FROM -3 TO -3
OFFSET CHANGED FROM -3 TO -9
OFFSET CHANGED FROM -9 TO -3
OFFSET CHANGED FROM -3 TO -9
OFFSET CHANGED FROM -9 TO -6
OFFSET CHANGED FROM -6 TO -3
OFFSET CHANGED FROM -3 TO -9
OFFSET CHANGED FROM -9 TO -9
OFFSET CHANGED FROM -9 TO -3
OFFSET CHANGED FROM -3 TO -3
OFFSET CHANGED FROM -3 TO -9
OFFSET CHANGED FROM -9 TO -3
OFFSET CHANGED FROM -3 TO -3
OFFSET CHANGED FROM -3 TO -3
OFFSET CHANGED FROM -3 TO -6
OFFSET CHANGED FROM -6 TO -3
OFFSET CHANGED FROM -3 TO -3
OFFSET CHANGED FROM -3 TO -3
OFFSET CHANGED FROM -3 TO -3
OFFSET CHANGED FROM -3 TO -3
OFFSET CHANGED FROM -3 TO -3
OFFSET CHANGED FROM -3 TO -3
OFFSET CHANGED FROM -3 TO -3
OFFSET CHANGED FROM -3 TO -9
OFFSET CHANGED FROM -9 TO -3
OFFSET CHANGED FROM -3 TO -3
OFFSET CHANGED FROM -3 TO -3
OFFSET CHANGED FROM -3 TO -9
OFFSET CHANGED FROM -9 TO -3
OFFSET CHANGED FROM -3 TO -2
OFFSET CHANGED FROM -2 TO -3
OFFSET CHANGED FROM -3 TO -3
OFFSET CHANGED FROM -3 TO -3
OFFSET CHANGED FROM -3 TO -3
OFFSET CHANGED FROM -3 TO -3
OFFSET CHANGED FROM -3 TO -3
OFFSET CHANGED FROM -3 TO -3
OFFSET CHANGED FROM -3 TO -6
OFFSET CHANGED FROM -6 TO -3
OFFSET CHANGED FROM -3 TO -6
OFFSET CHANGED FROM -6 TO -3
OFFSET CHANGED FROM -3 TO -6
OFFSET CHANGED FROM -6 TO -3
OFFSET CHANGED FROM -3 TO -3
OFFSET CHANGED FROM -3 TO -9
OFFSET CHANGED FROM -9 TO -3
OFFSET CHANGED FROM -3 TO -3
OFFSET CHANGED FROM -3 TO -6
OFFSET CHANGED FROM -6 TO -3
OFFSET CHANGED FROM -3 TO -3
OFFSET CHANGED FROM -3 TO -3
OFFSET CHANGED FROM -3 TO -3
OFFSET CHANGED FROM -3 TO -3
OFFSET CHANGED FROM -3 TO -3
OFFSET CHANGED FROM -3 TO -3
OFFSET CHANGED FROM -3 TO -3
OFFSET CHANGED FROM -3 TO -3
OFFSET CHANGED FROM -3 TO -9
OFFSET CHANGED FROM -9 TO -9
OFFSET CHANGED FROM -9 TO -9
OFFSET CHANGED FROM -9 TO -9
OFFSET CHANGED FROM -9 TO -3
OFFSET CHANGED FROM -3 TO -3
OFFSET CHANGED FROM -3 TO -3
OFFSET CHANGED FROM -3 TO -3
OFFSET CHANGED FROM -3 TO -3
OFFSET CHANGED FROM -3 TO -3
OFFSET CHANGED FROM -3 TO -9
OFFSET CHANGED FROM -9 TO -9
OFFSET CHANGED FROM -9 TO -3
OFFSET CHANGED FROM -3 TO -3
OFFSET CHANGED FROM -3 TO -3
OFFSET CHANGED FROM -3 TO -3
OFFSET CHANGED FROM -3 TO -3
OFFSET CHANGED FROM -3 TO -3
OFFSET CHANGED FROM -3 TO -3
OFFSET CHANGED FROM -3 TO -3
OFFSET CHANGED FROM -3 TO -9
OFFSET CHANGED FROM -9 TO -3
OFFSET CHANGED FROM -3 TO -3
OFFSET CHANGED FROM -3 TO -3
OFFSET CHANGED FROM -3 TO -3
OFFSET CHANGED FROM -3 TO -3
OFFSET CHANGED FROM -3 TO -3
OFFSET CHANGED FROM -3 TO -3
OFFSET CHANGED FROM -3 TO -3
OFFSET CHANGED FROM -3 TO -3
OFFSET CHANGED FROM -3 TO -9
OFFSET CHANGED FROM -9 TO -6
OFFSET CHANGED FROM -6 TO -3
OFFSET CHANGED FROM -3 TO -3
OFFSET CHANGED FROM -3 TO -3
OFFSET CHANGED FROM -3 TO -9
OFFSET CHANGED FROM -9 TO -3
OFFSET CHANGED FROM -3 TO -3
OFFSET CHANGED FROM -3 TO -3
OFFSET CHANGED FROM -3 TO -3
OFFSET CHANGED FROM -3 TO -9
OFFSET CHANGED FROM -9 TO -12
OFFSET CHANGED FROM -12 TO -3
OFFSET CHANGED FROM -3 TO -3
OFFSET CHANGED FROM -3 TO -3
OFFSET CHANGED FROM -3 TO -3
OFFSET CHANGED FROM -3 TO -9
OFFSET CHANGED FROM -9 TO -9
OFFSET CHANGED FROM -9 TO -3
OFFSET CHANGED FROM -3 TO -3
OFFSET CHANGED FROM -3 TO -3
OFFSET CHANGED FROM -3 TO -3
OFFSET CHANGED FROM -3 TO -3
OFFSET CHANGED FROM -3 TO -3
OFFSET CHANGED FROM -3 TO -3
OFFSET CHANGED FROM -3 TO -3
OFFSET CHANGED FROM -3 TO -3
OFFSET CHANGED FROM -3 TO -3
OFFSET CHANGED FROM -3 TO -3
OFFSET CHANGED FROM -3 TO -3
OFFSET CHANGED FROM -3 TO -3
OFFSET CHANGED FROM -3 TO -3
OFFSET CHANGED FROM -3 TO -9
OFFSET CHANGED FROM -9 TO -3
OFFSET CHANGED FROM -3 TO -3
OFFSET CHANGED FROM -3 TO -3
OFFSET CHANGED FROM -3 TO -3
OFFSET CHANGED FROM -3 TO -3
OFFSET CHANGED FROM -3 TO -3
OFFSET CHANGED FROM -3 TO -3
OFFSET CHANGED FROM -3 TO -3
OFFSET CHANGED FROM -3 TO -9
OFFSET CHANGED FROM -9 TO -9
OFFSET CHANGED FROM -9 TO -3
OFFSET CHANGED FROM -3 TO -3
OFFSET CHANGED FROM -3 TO -3
OFFSET CHANGED FROM -3 TO -3
OFFSET CHANGED FROM -3 TO -6
OFFSET CHANGED FROM -6 TO -3
OFFSET CHANGED FROM -3 TO -3
OFFSET CHANGED FROM -3 TO -3
OFFSET CHANGED FROM -3 TO -3
OFFSET CHANGED FROM -3 TO -3
OFFSET CHANGED FROM -3 TO -9
OFFSET CHANGED FROM -9 TO -3
OFFSET CHANGED FROM -3 TO -3
OFFSET CHANGED FROM -3 TO -3
OFFSET CHANGED FROM -3 TO -6
OFFSET CHANGED FROM -6 TO -3
OFFSET CHANGED FROM -3 TO -3
OFFSET CHANGED FROM -3 TO -3
OFFSET CHANGED FROM -3 TO -3
OFFSET CHANGED FROM -3 TO -3
OFFSET CHANGED FROM -3 TO -3
OFFSET CHANGED FROM -3 TO -3
OFFSET CHANGED FROM -3 TO -3
OFFSET CHANGED FROM -3 TO -3
OFFSET CHANGED FROM -3 TO -3
OFFSET CHANGED FROM -3 TO -3
OFFSET CHANGED FROM -3 TO -9
OFFSET CHANGED FROM -9 TO -6
OFFSET CHANGED FROM -6 TO -3
OFFSET CHANGED FROM -3 TO -3
OFFSET CHANGED FROM -3 TO -3
OFFSET CHANGED FROM -3 TO -3
OFFSET CHANGED FROM -3 TO -3
OFFSET CHANGED FROM -3 TO -3
OFFSET CHANGED FROM -3 TO -3
OFFSET CHANGED FROM -3 TO -3
OFFSET CHANGED FROM -3 TO -3
OFFSET CHANGED FROM -3 TO -3
OFFSET CHANGED FROM -3 TO -3
OFFSET CHANGED FROM -3 TO -3
OFFSET CHANGED FROM -3 TO -3
OFFSET CHANGED FROM -3 TO -3
OFFSET CHANGED FROM -3 TO -3
OFFSET CHANGED FROM -3 TO -3
OFFSET CHANGED FROM -3 TO -9
OFFSET CHANGED FROM -9 TO -3
OFFSET CHANGED FROM -3 TO -3
OFFSET CHANGED FROM -3 TO -3
OFFSET CHANGED FROM -3 TO -3
OFFSET CHANGED FROM -3 TO -3
OFFSET CHANGED FROM -3 TO -3
OFFSET CHANGED FROM -3 TO -3
OFFSET CHANGED FROM -3 TO -3
OFFSET CHANGED FROM -3 TO -3
OFFSET CHANGED FROM -3 TO -3
OFFSET CHANGED FROM -3 TO -3
OFFSET CHANGED FROM -3 TO -3
OFFSET CHANGED FROM -3 TO -3
OFFSET CHANGED FROM -3 TO -3
OFFSET CHANGED FROM -3 TO -3
OFFSET CHANGED FROM -3 TO -3
OFFSET CHANGED FROM -3 TO -3
OFFSET CHANGED FROM -3 TO -3
OFFSET CHANGED FROM -3 TO -3
OFFSET CHANGED FROM -3 TO -3
OFFSET CHANGED FROM -3 TO -9
OFFSET CHANGED FROM -9 TO -9
OFFSET CHANGED FROM -9 TO -3
OFFSET CHANGED FROM -3 TO -3
OFFSET CHANGED FROM -3 TO -3
OFFSET CHANGED FROM -3 TO -3
OFFSET CHANGED FROM -3 TO -3
OFFSET CHANGED FROM -3 TO -3
OFFSET CHANGED FROM -3 TO -3
OFFSET CHANGED FROM -3 TO -3
OFFSET CHANGED FROM -3 TO -3
OFFSET CHANGED FROM -3 TO -3
OFFSET CHANGED FROM -3 TO -3
OFFSET CHANGED FROM -3 TO -3
OFFSET CHANGED FROM -3 TO -3
OFFSET CHANGED FROM -3 TO -3
OFFSET CHANGED FROM -3 TO -3
OFFSET CHANGED FROM -3 TO -3
OFFSET CHANGED FROM -3 TO -9
OFFSET CHANGED FROM -9 TO -3
OFFSET CHANGED FROM -3 TO -9
OFFSET CHANGED FROM -9 TO -3
OFFSET CHANGED FROM -3 TO -3
OFFSET CHANGED FROM -3 TO -3
OFFSET CHANGED FROM -3 TO -3
OFFSET CHANGED FROM -3 TO -15
OFFSET CHANGED FROM -15 TO -12
OFFSET CHANGED FROM -12 TO -6
OFFSET CHANGED FROM -6 TO -9
OFFSET CHANGED FROM -9 TO -3
OFFSET CHANGED FROM -3 TO -3
OFFSET CHANGED FROM -3 TO -3
OFFSET CHANGED FROM -3 TO -3
OFFSET CHANGED FROM -3 TO -3
OFFSET CHANGED FROM -3 TO -3
OFFSET CHANGED FROM -3 TO -3
OFFSET CHANGED FROM -3 TO -3
OFFSET CHANGED FROM -3 TO -6
OFFSET CHANGED FROM -6 TO -3
OFFSET CHANGED FROM -3 TO -3
OFFSET CHANGED FROM -3 TO -3
OFFSET CHANGED FROM -3 TO -3
OFFSET CHANGED FROM -3 TO -3
OFFSET CHANGED FROM -3 TO -3
OFFSET CHANGED FROM -3 TO -3
OFFSET CHANGED FROM -3 TO -3
OFFSET CHANGED FROM -3 TO -3
OFFSET CHANGED FROM -3 TO -3
OFFSET CHANGED FROM -3 TO -3
OFFSET CHANGED FROM -3 TO -3
OFFSET CHANGED FROM -3 TO -3
OFFSET CHANGED FROM -3 TO -3
OFFSET CHANGED FROM -3 TO -3
OFFSET CHANGED FROM -3 TO -3
OFFSET CHANGED FROM -3 TO -3
OFFSET CHANGED FROM -3 TO -3
OFFSET CHANGED FROM -3 TO -3
OFFSET CHANGED FROM -3 TO -3
OFFSET CHANGED FROM -3 TO -3
OFFSET CHANGED FROM -3 TO -9
OFFSET CHANGED FROM -9 TO -3
OFFSET CHANGED FROM -3 TO -3
OFFSET CHANGED FROM -3 TO -3
OFFSET CHANGED FROM -3 TO -3
OFFSET CHANGED FROM -3 TO -3
OFFSET CHANGED FROM -3 TO -3
OFFSET CHANGED FROM -3 TO -3
OFFSET CHANGED FROM -3 TO -3
OFFSET CHANGED FROM -3 TO -3
OFFSET CHANGED FROM -3 TO -3
OFFSET CHANGED FROM -3 TO -3
OFFSET CHANGED FROM -3 TO -3
OFFSET CHANGED FROM -3 TO -6
OFFSET CHANGED FROM -6 TO -3
OFFSET CHANGED FROM -3 TO -3
OFFSET CHANGED FROM -3 TO -3
OFFSET CHANGED FROM -3 TO -9
OFFSET CHANGED FROM -9 TO -3
OFFSET CHANGED FROM -3 TO -9
OFFSET CHANGED FROM -9 TO -9
OFFSET CHANGED FROM -9 TO -3
OFFSET CHANGED FROM -3 TO -3
OFFSET CHANGED FROM -3 TO -3
OFFSET CHANGED FROM -3 TO -3
OFFSET CHANGED FROM -3 TO -3
OFFSET CHANGED FROM -3 TO -3
OFFSET CHANGED FROM -3 TO -3
OFFSET CHANGED FROM -3 TO -3
OFFSET CHANGED FROM -3 TO -3
OFFSET CHANGED FROM -3 TO -3
OFFSET CHANGED FROM -3 TO -3
OFFSET CHANGED FROM -3 TO -3
OFFSET CHANGED FROM -3 TO -3
OFFSET CHANGED FROM -3 TO -3
OFFSET CHANGED FROM -3 TO -3
OFFSET CHANGED FROM -3 TO -3
OFFSET CHANGED FROM -3 TO -3
OFFSET CHANGED FROM -3 TO -3
OFFSET CHANGED FROM -3 TO -3
OFFSET CHANGED FROM -3 TO -3
OFFSET CHANGED FROM -3 TO -3
OFFSET CHANGED FROM -3 TO -3
OFFSET CHANGED FROM -3 TO -3
OFFSET CHANGED FROM -3 TO -3
OFFSET CHANGED FROM -3 TO -3
OFFSET CHANGED FROM -3 TO -3
OFFSET CHANGED FROM -3 TO -3
OFFSET CHANGED FROM -3 TO -3
OFFSET CHANGED FROM -3 TO -9
OFFSET CHANGED FROM -9 TO -9
OFFSET CHANGED FROM -9 TO -3
OFFSET CHANGED FROM -3 TO -9
OFFSET CHANGED FROM -9 TO -3
OFFSET CHANGED FROM -3 TO -3
OFFSET CHANGED FROM -3 TO -3
OFFSET CHANGED FROM -3 TO -3
OFFSET CHANGED FROM -3 TO -3
OFFSET CHANGED FROM -3 TO -3
OFFSET CHANGED FROM -3 TO -3
OFFSET CHANGED FROM -3 TO -3
OFFSET CHANGED FROM -3 TO -3
OFFSET CHANGED FROM -3 TO -3
OFFSET CHANGED FROM -3 TO -3
OFFSET CHANGED FROM -3 TO -3
OFFSET CHANGED FROM -3 TO -3
OFFSET CHANGED FROM -3 TO -3
OFFSET CHANGED FROM -3 TO -3
OFFSET CHANGED FROM -3 TO -3
OFFSET CHANGED FROM -3 TO -3
OFFSET CHANGED FROM -3 TO -3
OFFSET CHANGED FROM -3 TO -3
OFFSET CHANGED FROM -3 TO -3
OFFSET CHANGED FROM -3 TO -3
OFFSET CHANGED FROM -3 TO -3
OFFSET CHANGED FROM -3 TO -3
OFFSET CHANGED FROM -3 TO -3
OFFSET CHANGED FROM -3 TO -3
OFFSET CHANGED FROM -3 TO -3
OFFSET CHANGED FROM -3 TO -3
OFFSET CHANGED FROM -3 TO -3
OFFSET CHANGED FROM -3 TO -3
OFFSET CHANGED FROM -3 TO -3
OFFSET CHANGED FROM -3 TO -3
OFFSET CHANGED FROM -3 TO -3
OFFSET CHANGED FROM -3 TO -3
OFFSET CHANGED FROM -3 TO -6
OFFSET CHANGED FROM -6 TO -3
OFFSET CHANGED FROM -3 TO -3
OFFSET CHANGED FROM -3 TO -3
OFFSET CHANGED FROM -3 TO -3
OFFSET CHANGED FROM -3 TO -3
OFFSET CHANGED FROM -3 TO -3
OFFSET CHANGED FROM -3 TO -3
OFFSET CHANGED FROM -3 TO -3
OFFSET CHANGED FROM -3 TO -3
OFFSET CHANGED FROM -3 TO -3
OFFSET CHANGED FROM -3 TO -3
OFFSET CHANGED FROM -3 TO -3
OFFSET CHANGED FROM -3 TO -3
OFFSET CHANGED FROM -3 TO -6
OFFSET CHANGED FROM -6 TO -3
OFFSET CHANGED FROM -3 TO -3
OFFSET CHANGED FROM -3 TO -3
OFFSET CHANGED FROM -3 TO -3
Heartbeat CPU 0 instructions: 30000000 cycles: 13025393 heartbeat IPC: 2.28312 cumulative IPC: 2.30319 (Simulation time: 0 hr 1 min 20 sec) 
OFFSET CHANGED FROM -3 TO -3
OFFSET CHANGED FROM -3 TO -3
OFFSET CHANGED FROM -3 TO -3
OFFSET CHANGED FROM -3 TO -6
OFFSET CHANGED FROM -6 TO -3
OFFSET CHANGED FROM -3 TO -3
OFFSET CHANGED FROM -3 TO -6
OFFSET CHANGED FROM -6 TO -9
OFFSET CHANGED FROM -9 TO -3
OFFSET CHANGED FROM -3 TO -3
OFFSET CHANGED FROM -3 TO -3
OFFSET CHANGED FROM -3 TO -9
OFFSET CHANGED FROM -9 TO -3
OFFSET CHANGED FROM -3 TO -3
OFFSET CHANGED FROM -3 TO -3
OFFSET CHANGED FROM -3 TO -3
OFFSET CHANGED FROM -3 TO -3
OFFSET CHANGED FROM -3 TO -9
OFFSET CHANGED FROM -9 TO -3
OFFSET CHANGED FROM -3 TO -3
OFFSET CHANGED FROM -3 TO -9
OFFSET CHANGED FROM -9 TO -9
OFFSET CHANGED FROM -9 TO -12
OFFSET CHANGED FROM -12 TO -9
OFFSET CHANGED FROM -9 TO -3
OFFSET CHANGED FROM -3 TO -3
OFFSET CHANGED FROM -3 TO -3
OFFSET CHANGED FROM -3 TO -3
OFFSET CHANGED FROM -3 TO -9
OFFSET CHANGED FROM -9 TO -3
OFFSET CHANGED FROM -3 TO -3
OFFSET CHANGED FROM -3 TO -3
OFFSET CHANGED FROM -3 TO -3
OFFSET CHANGED FROM -3 TO -3
OFFSET CHANGED FROM -3 TO -9
OFFSET CHANGED FROM -9 TO -3
OFFSET CHANGED FROM -3 TO -3
OFFSET CHANGED FROM -3 TO -3
OFFSET CHANGED FROM -3 TO -3
OFFSET CHANGED FROM -3 TO -3
OFFSET CHANGED FROM -3 TO -3
OFFSET CHANGED FROM -3 TO -3
OFFSET CHANGED FROM -3 TO -3
OFFSET CHANGED FROM -3 TO -3
OFFSET CHANGED FROM -3 TO -3
OFFSET CHANGED FROM -3 TO -3
OFFSET CHANGED FROM -3 TO -3
OFFSET CHANGED FROM -3 TO -3
OFFSET CHANGED FROM -3 TO -3
OFFSET CHANGED FROM -3 TO -3
OFFSET CHANGED FROM -3 TO -3
OFFSET CHANGED FROM -3 TO -3
OFFSET CHANGED FROM -3 TO -6
OFFSET CHANGED FROM -6 TO -3
OFFSET CHANGED FROM -3 TO -9
OFFSET CHANGED FROM -9 TO -3
OFFSET CHANGED FROM -3 TO -3
OFFSET CHANGED FROM -3 TO -3
OFFSET CHANGED FROM -3 TO -3
OFFSET CHANGED FROM -3 TO -9
OFFSET CHANGED FROM -9 TO -9
OFFSET CHANGED FROM -9 TO -3
OFFSET CHANGED FROM -3 TO -6
OFFSET CHANGED FROM -6 TO -9
OFFSET CHANGED FROM -9 TO -3
OFFSET CHANGED FROM -3 TO -6
OFFSET CHANGED FROM -6 TO -3
OFFSET CHANGED FROM -3 TO -3
OFFSET CHANGED FROM -3 TO -3
OFFSET CHANGED FROM -3 TO -3
OFFSET CHANGED FROM -3 TO -3
OFFSET CHANGED FROM -3 TO -3
OFFSET CHANGED FROM -3 TO -3
OFFSET CHANGED FROM -3 TO -3
OFFSET CHANGED FROM -3 TO -3
OFFSET CHANGED FROM -3 TO -3
OFFSET CHANGED FROM -3 TO -3
OFFSET CHANGED FROM -3 TO -3
OFFSET CHANGED FROM -3 TO -3
OFFSET CHANGED FROM -3 TO -3
OFFSET CHANGED FROM -3 TO -3
OFFSET CHANGED FROM -3 TO -9
OFFSET CHANGED FROM -9 TO -3
OFFSET CHANGED FROM -3 TO -3
OFFSET CHANGED FROM -3 TO -9
OFFSET CHANGED FROM -9 TO -3
OFFSET CHANGED FROM -3 TO -3
OFFSET CHANGED FROM -3 TO -9
OFFSET CHANGED FROM -9 TO -3
OFFSET CHANGED FROM -3 TO -3
OFFSET CHANGED FROM -3 TO -3
OFFSET CHANGED FROM -3 TO -3
OFFSET CHANGED FROM -3 TO -3
OFFSET CHANGED FROM -3 TO -3
OFFSET CHANGED FROM -3 TO -3
Heartbeat CPU 0 instructions: 40000002 cycles: 16762094 heartbeat IPC: 2.67616 cumulative IPC: 2.38634 (Simulation time: 0 hr 1 min 45 sec) 
OFFSET CHANGED FROM -3 TO -3
OFFSET CHANGED FROM -3 TO -6
OFFSET CHANGED FROM -6 TO -3
OFFSET CHANGED FROM -3 TO -3
OFFSET CHANGED FROM -3 TO -6
OFFSET CHANGED FROM -6 TO -3
OFFSET CHANGED FROM -3 TO -3
OFFSET CHANGED FROM -3 TO -3
OFFSET CHANGED FROM -3 TO -3
OFFSET CHANGED FROM -3 TO -3
OFFSET CHANGED FROM -3 TO -6
OFFSET CHANGED FROM -6 TO -9
OFFSET CHANGED FROM -9 TO -3
OFFSET CHANGED FROM -3 TO -3
OFFSET CHANGED FROM -3 TO -6
OFFSET CHANGED FROM -6 TO -6
OFFSET CHANGED FROM -6 TO -3
OFFSET CHANGED FROM -3 TO -3
OFFSET CHANGED FROM -3 TO -3
OFFSET CHANGED FROM -3 TO -3
OFFSET CHANGED FROM -3 TO -9
OFFSET CHANGED FROM -9 TO -3
OFFSET CHANGED FROM -3 TO -3
OFFSET CHANGED FROM -3 TO -3
OFFSET CHANGED FROM -3 TO -3
OFFSET CHANGED FROM -3 TO -9
OFFSET CHANGED FROM -9 TO -9
OFFSET CHANGED FROM -9 TO -9
OFFSET CHANGED FROM -9 TO -3
OFFSET CHANGED FROM -3 TO -3
OFFSET CHANGED FROM -3 TO -3
OFFSET CHANGED FROM -3 TO -3
OFFSET CHANGED FROM -3 TO -3
OFFSET CHANGED FROM -3 TO -3
OFFSET CHANGED FROM -3 TO -3
OFFSET CHANGED FROM -3 TO -3
OFFSET CHANGED FROM -3 TO -3
OFFSET CHANGED FROM -3 TO -3
OFFSET CHANGED FROM -3 TO -3
OFFSET CHANGED FROM -3 TO -3
OFFSET CHANGED FROM -3 TO -3
OFFSET CHANGED FROM -3 TO -3
OFFSET CHANGED FROM -3 TO -3
OFFSET CHANGED FROM -3 TO -3
OFFSET CHANGED FROM -3 TO -3
OFFSET CHANGED FROM -3 TO -2
OFFSET CHANGED FROM -2 TO -3
OFFSET CHANGED FROM -3 TO -3
OFFSET CHANGED FROM -3 TO -3
OFFSET CHANGED FROM -3 TO -6
OFFSET CHANGED FROM -6 TO -6
OFFSET CHANGED FROM -6 TO -6
OFFSET CHANGED FROM -6 TO -3
OFFSET CHANGED FROM -3 TO -3
OFFSET CHANGED FROM -3 TO -3
OFFSET CHANGED FROM -3 TO -3
OFFSET CHANGED FROM -3 TO -3
OFFSET CHANGED FROM -3 TO -6
OFFSET CHANGED FROM -6 TO -3
OFFSET CHANGED FROM -3 TO -3
OFFSET CHANGED FROM -3 TO -3
OFFSET CHANGED FROM -3 TO -3
OFFSET CHANGED FROM -3 TO -6
OFFSET CHANGED FROM -6 TO -3
OFFSET CHANGED FROM -3 TO -3
OFFSET CHANGED FROM -3 TO -3
OFFSET CHANGED FROM -3 TO -3
OFFSET CHANGED FROM -3 TO -3
OFFSET CHANGED FROM -3 TO -3
OFFSET CHANGED FROM -3 TO -3
OFFSET CHANGED FROM -3 TO -3
OFFSET CHANGED FROM -3 TO -3
OFFSET CHANGED FROM -3 TO -3
OFFSET CHANGED FROM -3 TO -3
OFFSET CHANGED FROM -3 TO -3
OFFSET CHANGED FROM -3 TO -3
OFFSET CHANGED FROM -3 TO -3
OFFSET CHANGED FROM -3 TO -3
OFFSET CHANGED FROM -3 TO -9
OFFSET CHANGED FROM -9 TO -3
OFFSET CHANGED FROM -3 TO -6
OFFSET CHANGED FROM -6 TO -3
OFFSET CHANGED FROM -3 TO -3
OFFSET CHANGED FROM -3 TO -3
OFFSET CHANGED FROM -3 TO -3
OFFSET CHANGED FROM -3 TO -3
OFFSET CHANGED FROM -3 TO -3
OFFSET CHANGED FROM -3 TO -3
OFFSET CHANGED FROM -3 TO -3
OFFSET CHANGED FROM -3 TO -3
OFFSET CHANGED FROM -3 TO -3
OFFSET CHANGED FROM -3 TO -3
OFFSET CHANGED FROM -3 TO -15
OFFSET CHANGED FROM -15 TO -9
OFFSET CHANGED FROM -9 TO -3
OFFSET CHANGED FROM -3 TO -3
OFFSET CHANGED FROM -3 TO -3
OFFSET CHANGED FROM -3 TO -9
OFFSET CHANGED FROM -9 TO -3
OFFSET CHANGED FROM -3 TO -3
OFFSET CHANGED FROM -3 TO -3
OFFSET CHANGED FROM -3 TO -9
OFFSET CHANGED FROM -9 TO -9
OFFSET CHANGED FROM -9 TO -3
OFFSET CHANGED FROM -3 TO -3
OFFSET CHANGED FROM -3 TO -3
OFFSET CHANGED FROM -3 TO -3
OFFSET CHANGED FROM -3 TO -3
OFFSET CHANGED FROM -3 TO -9
OFFSET CHANGED FROM -9 TO -3
OFFSET CHANGED FROM -3 TO -3
OFFSET CHANGED FROM -3 TO -3
OFFSET CHANGED FROM -3 TO -6
OFFSET CHANGED FROM -6 TO -3
OFFSET CHANGED FROM -3 TO -3
OFFSET CHANGED FROM -3 TO -3
OFFSET CHANGED FROM -3 TO -6
OFFSET CHANGED FROM -6 TO -3
OFFSET CHANGED FROM -3 TO -3
OFFSET CHANGED FROM -3 TO -3
OFFSET CHANGED FROM -3 TO -3
OFFSET CHANGED FROM -3 TO -3
OFFSET CHANGED FROM -3 TO -3
OFFSET CHANGED FROM -3 TO -3
OFFSET CHANGED FROM -3 TO -3
OFFSET CHANGED FROM -3 TO -9
OFFSET CHANGED FROM -9 TO -3
OFFSET CHANGED FROM -3 TO -3
OFFSET CHANGED FROM -3 TO -3
OFFSET CHANGED FROM -3 TO -3
OFFSET CHANGED FROM -3 TO -3
OFFSET CHANGED FROM -3 TO -9
OFFSET CHANGED FROM -9 TO -3
OFFSET CHANGED FROM -3 TO -3
OFFSET CHANGED FROM -3 TO -3
OFFSET CHANGED FROM -3 TO -3
OFFSET CHANGED FROM -3 TO -3
OFFSET CHANGED FROM -3 TO -3
OFFSET CHANGED FROM -3 TO -3
OFFSET CHANGED FROM -3 TO -3
OFFSET CHANGED FROM -3 TO -3
OFFSET CHANGED FROM -3 TO -3
OFFSET CHANGED FROM -3 TO -3
OFFSET CHANGED FROM -3 TO -3
OFFSET CHANGED FROM -3 TO -3
OFFSET CHANGED FROM -3 TO -3
OFFSET CHANGED FROM -3 TO -3
OFFSET CHANGED FROM -3 TO -3
OFFSET CHANGED FROM -3 TO -3
OFFSET CHANGED FROM -3 TO -3
OFFSET CHANGED FROM -3 TO -3
OFFSET CHANGED FROM -3 TO -3
OFFSET CHANGED FROM -3 TO -9
OFFSET CHANGED FROM -9 TO -3
OFFSET CHANGED FROM -3 TO -15
OFFSET CHANGED FROM -15 TO -9
OFFSET CHANGED FROM -9 TO -3
OFFSET CHANGED FROM -3 TO -9
OFFSET CHANGED FROM -9 TO -6
OFFSET CHANGED FROM -6 TO -3
OFFSET CHANGED FROM -3 TO -3
OFFSET CHANGED FROM -3 TO -3
OFFSET CHANGED FROM -3 TO -3
OFFSET CHANGED FROM -3 TO -3
OFFSET CHANGED FROM -3 TO -9
OFFSET CHANGED FROM -9 TO -3
OFFSET CHANGED FROM -3 TO -3
OFFSET CHANGED FROM -3 TO -3
OFFSET CHANGED FROM -3 TO -3
OFFSET CHANGED FROM -3 TO -3
OFFSET CHANGED FROM -3 TO -9
OFFSET CHANGED FROM -9 TO -3
OFFSET CHANGED FROM -3 TO -3
OFFSET CHANGED FROM -3 TO -3
OFFSET CHANGED FROM -3 TO -3
OFFSET CHANGED FROM -3 TO -3
OFFSET CHANGED FROM -3 TO -3
OFFSET CHANGED FROM -3 TO -3
OFFSET CHANGED FROM -3 TO -3
OFFSET CHANGED FROM -3 TO -3
OFFSET CHANGED FROM -3 TO -3
OFFSET CHANGED FROM -3 TO -3
OFFSET CHANGED FROM -3 TO -3
OFFSET CHANGED FROM -3 TO -3
OFFSET CHANGED FROM -3 TO -3
OFFSET CHANGED FROM -3 TO -3
OFFSET CHANGED FROM -3 TO -9
OFFSET CHANGED FROM -9 TO -3
OFFSET CHANGED FROM -3 TO -3
OFFSET CHANGED FROM -3 TO -3
OFFSET CHANGED FROM -3 TO -3
OFFSET CHANGED FROM -3 TO -6
OFFSET CHANGED FROM -6 TO -6
OFFSET CHANGED FROM -6 TO -9
OFFSET CHANGED FROM -9 TO -3
OFFSET CHANGED FROM -3 TO -3
OFFSET CHANGED FROM -3 TO -3
OFFSET CHANGED FROM -3 TO -3
OFFSET CHANGED FROM -3 TO -3
OFFSET CHANGED FROM -3 TO -9
OFFSET CHANGED FROM -9 TO -3
OFFSET CHANGED FROM -3 TO -3
OFFSET CHANGED FROM -3 TO -3
OFFSET CHANGED FROM -3 TO -6
OFFSET CHANGED FROM -6 TO -3
OFFSET CHANGED FROM -3 TO -3
OFFSET CHANGED FROM -3 TO -3
OFFSET CHANGED FROM -3 TO -3
OFFSET CHANGED FROM -3 TO -3
OFFSET CHANGED FROM -3 TO -3
OFFSET CHANGED FROM -3 TO -3
OFFSET CHANGED FROM -3 TO -3
OFFSET CHANGED FROM -3 TO -9
OFFSET CHANGED FROM -9 TO -3
OFFSET CHANGED FROM -3 TO -3
OFFSET CHANGED FROM -3 TO -3
OFFSET CHANGED FROM -3 TO -3
OFFSET CHANGED FROM -3 TO -3
OFFSET CHANGED FROM -3 TO -3
OFFSET CHANGED FROM -3 TO -3
OFFSET CHANGED FROM -3 TO -3
OFFSET CHANGED FROM -3 TO -3
OFFSET CHANGED FROM -3 TO -3
OFFSET CHANGED FROM -3 TO -3
OFFSET CHANGED FROM -3 TO -6
OFFSET CHANGED FROM -6 TO -3
OFFSET CHANGED FROM -3 TO -3
OFFSET CHANGED FROM -3 TO -3
OFFSET CHANGED FROM -3 TO -3
OFFSET CHANGED FROM -3 TO -3
OFFSET CHANGED FROM -3 TO -3
OFFSET CHANGED FROM -3 TO -3
OFFSET CHANGED FROM -3 TO -3
OFFSET CHANGED FROM -3 TO -3
OFFSET CHANGED FROM -3 TO -3
OFFSET CHANGED FROM -3 TO -3
OFFSET CHANGED FROM -3 TO -3
OFFSET CHANGED FROM -3 TO -3
OFFSET CHANGED FROM -3 TO -3
OFFSET CHANGED FROM -3 TO -3
Heartbeat CPU 0 instructions: 50000002 cycles: 20842144 heartbeat IPC: 2.45095 cumulative IPC: 2.39899 (Simulation time: 0 hr 2 min 11 sec) 

Warmup complete CPU 0 instructions: 50000002 cycles: 20842144 (Simulation time: 0 hr 2 min 11 sec) 

OFFSET CHANGED FROM -3 TO -6
OFFSET CHANGED FROM -6 TO -6
OFFSET CHANGED FROM -6 TO -6
OFFSET CHANGED FROM -6 TO -6
OFFSET CHANGED FROM -6 TO -6
OFFSET CHANGED FROM -6 TO -6
OFFSET CHANGED FROM -6 TO -6
OFFSET CHANGED FROM -6 TO -6
OFFSET CHANGED FROM -6 TO -6
OFFSET CHANGED FROM -6 TO -6
OFFSET CHANGED FROM -6 TO -9
OFFSET CHANGED FROM -9 TO -6
OFFSET CHANGED FROM -6 TO -6
OFFSET CHANGED FROM -6 TO -6
OFFSET CHANGED FROM -6 TO -6
OFFSET CHANGED FROM -6 TO -6
OFFSET CHANGED FROM -6 TO -6
OFFSET CHANGED FROM -6 TO -6
OFFSET CHANGED FROM -6 TO -6
OFFSET CHANGED FROM -6 TO -6
OFFSET CHANGED FROM -6 TO -6
OFFSET CHANGED FROM -6 TO -6
OFFSET CHANGED FROM -6 TO -6
OFFSET CHANGED FROM -6 TO -6
OFFSET CHANGED FROM -6 TO -6
OFFSET CHANGED FROM -6 TO -6
OFFSET CHANGED FROM -6 TO -6
OFFSET CHANGED FROM -6 TO -9
OFFSET CHANGED FROM -9 TO -6
OFFSET CHANGED FROM -6 TO -6
OFFSET CHANGED FROM -6 TO -6
OFFSET CHANGED FROM -6 TO -9
OFFSET CHANGED FROM -9 TO -6
OFFSET CHANGED FROM -6 TO -6
OFFSET CHANGED FROM -6 TO -6
OFFSET CHANGED FROM -6 TO -6
OFFSET CHANGED FROM -6 TO -6
OFFSET CHANGED FROM -6 TO -6
OFFSET CHANGED FROM -6 TO -6
OFFSET CHANGED FROM -6 TO -6
OFFSET CHANGED FROM -6 TO -6
OFFSET CHANGED FROM -6 TO -6
OFFSET CHANGED FROM -6 TO -6
OFFSET CHANGED FROM -6 TO -6
OFFSET CHANGED FROM -6 TO -6
OFFSET CHANGED FROM -6 TO -9
OFFSET CHANGED FROM -9 TO -6
OFFSET CHANGED FROM -6 TO -6
OFFSET CHANGED FROM -6 TO -6
OFFSET CHANGED FROM -6 TO -6
OFFSET CHANGED FROM -6 TO -6
OFFSET CHANGED FROM -6 TO -6
OFFSET CHANGED FROM -6 TO -6
OFFSET CHANGED FROM -6 TO -6
OFFSET CHANGED FROM -6 TO -6
OFFSET CHANGED FROM -6 TO -6
OFFSET CHANGED FROM -6 TO -6
OFFSET CHANGED FROM -6 TO -6
OFFSET CHANGED FROM -6 TO -6
OFFSET CHANGED FROM -6 TO -6
OFFSET CHANGED FROM -6 TO -6
OFFSET CHANGED FROM -6 TO -6
OFFSET CHANGED FROM -6 TO -6
OFFSET CHANGED FROM -6 TO -6
OFFSET CHANGED FROM -6 TO -6
OFFSET CHANGED FROM -6 TO -6
OFFSET CHANGED FROM -6 TO -6
OFFSET CHANGED FROM -6 TO -6
OFFSET CHANGED FROM -6 TO -6
OFFSET CHANGED FROM -6 TO -6
OFFSET CHANGED FROM -6 TO -6
OFFSET CHANGED FROM -6 TO -6
OFFSET CHANGED FROM -6 TO -6
OFFSET CHANGED FROM -6 TO -6
OFFSET CHANGED FROM -6 TO -6
OFFSET CHANGED FROM -6 TO -6
OFFSET CHANGED FROM -6 TO -6
OFFSET CHANGED FROM -6 TO -6
OFFSET CHANGED FROM -6 TO -6
OFFSET CHANGED FROM -6 TO -6
OFFSET CHANGED FROM -6 TO -6
OFFSET CHANGED FROM -6 TO -9
OFFSET CHANGED FROM -9 TO -6
OFFSET CHANGED FROM -6 TO -6
OFFSET CHANGED FROM -6 TO -9
PREFETCHING INTO L2 w/ PREFETCH SCORE 31 (MSHR OCC = 28)
OFFSET CHANGED FROM -9 TO -9
OFFSET CHANGED FROM -9 TO -6
OFFSET CHANGED FROM -6 TO -6
OFFSET CHANGED FROM -6 TO -6
OFFSET CHANGED FROM -6 TO -6
OFFSET CHANGED FROM -6 TO -6
OFFSET CHANGED FROM -6 TO -6
OFFSET CHANGED FROM -6 TO -9
OFFSET CHANGED FROM -9 TO -6
OFFSET CHANGED FROM -6 TO -6
OFFSET CHANGED FROM -6 TO -6
OFFSET CHANGED FROM -6 TO -6
OFFSET CHANGED FROM -6 TO -6
OFFSET CHANGED FROM -6 TO -6
OFFSET CHANGED FROM -6 TO -6
OFFSET CHANGED FROM -6 TO -6
OFFSET CHANGED FROM -6 TO -6
OFFSET CHANGED FROM -6 TO -6
OFFSET CHANGED FROM -6 TO -9
OFFSET CHANGED FROM -9 TO -6
OFFSET CHANGED FROM -6 TO -6
OFFSET CHANGED FROM -6 TO -6
OFFSET CHANGED FROM -6 TO -6
OFFSET CHANGED FROM -6 TO -6
OFFSET CHANGED FROM -6 TO -6
OFFSET CHANGED FROM -6 TO -6
OFFSET CHANGED FROM -6 TO -6
OFFSET CHANGED FROM -6 TO -6
OFFSET CHANGED FROM -6 TO -6
OFFSET CHANGED FROM -6 TO -6
OFFSET CHANGED FROM -6 TO -9
OFFSET CHANGED FROM -9 TO -12
OFFSET CHANGED FROM -12 TO -6
OFFSET CHANGED FROM -6 TO -6
OFFSET CHANGED FROM -6 TO -6
OFFSET CHANGED FROM -6 TO -6
OFFSET CHANGED FROM -6 TO -6
OFFSET CHANGED FROM -6 TO -6
OFFSET CHANGED FROM -6 TO -9
OFFSET CHANGED FROM -9 TO -9
OFFSET CHANGED FROM -9 TO -6
OFFSET CHANGED FROM -6 TO -6
OFFSET CHANGED FROM -6 TO -6
OFFSET CHANGED FROM -6 TO -6
OFFSET CHANGED FROM -6 TO -9
OFFSET CHANGED FROM -9 TO -9
OFFSET CHANGED FROM -9 TO -9
OFFSET CHANGED FROM -9 TO -6
OFFSET CHANGED FROM -6 TO -6
OFFSET CHANGED FROM -6 TO -6
OFFSET CHANGED FROM -6 TO -6
OFFSET CHANGED FROM -6 TO -6
OFFSET CHANGED FROM -6 TO -9
OFFSET CHANGED FROM -9 TO -6
OFFSET CHANGED FROM -6 TO -6
OFFSET CHANGED FROM -6 TO -6
OFFSET CHANGED FROM -6 TO -6
OFFSET CHANGED FROM -6 TO -6
OFFSET CHANGED FROM -6 TO -6
OFFSET CHANGED FROM -6 TO -6
OFFSET CHANGED FROM -6 TO -6
OFFSET CHANGED FROM -6 TO -6
OFFSET CHANGED FROM -6 TO -6
OFFSET CHANGED FROM -6 TO -6
OFFSET CHANGED FROM -6 TO -6
OFFSET CHANGED FROM -6 TO -6
OFFSET CHANGED FROM -6 TO -6
OFFSET CHANGED FROM -6 TO -6
OFFSET CHANGED FROM -6 TO -9
OFFSET CHANGED FROM -9 TO -9
OFFSET CHANGED FROM -9 TO -6
OFFSET CHANGED FROM -6 TO -9
OFFSET CHANGED FROM -9 TO -6
OFFSET CHANGED FROM -6 TO -6
OFFSET CHANGED FROM -6 TO -6
OFFSET CHANGED FROM -6 TO -6
OFFSET CHANGED FROM -6 TO -6
OFFSET CHANGED FROM -6 TO -6
OFFSET CHANGED FROM -6 TO -6
OFFSET CHANGED FROM -6 TO -6
OFFSET CHANGED FROM -6 TO -6
OFFSET CHANGED FROM -6 TO -6
OFFSET CHANGED FROM -6 TO -6
OFFSET CHANGED FROM -6 TO -6
OFFSET CHANGED FROM -6 TO -9
OFFSET CHANGED FROM -9 TO -9
OFFSET CHANGED FROM -9 TO -6
OFFSET CHANGED FROM -6 TO -6
OFFSET CHANGED FROM -6 TO -9
OFFSET CHANGED FROM -9 TO -6
OFFSET CHANGED FROM -6 TO -6
OFFSET CHANGED FROM -6 TO -6
OFFSET CHANGED FROM -6 TO -6
OFFSET CHANGED FROM -6 TO -6
OFFSET CHANGED FROM -6 TO -6
OFFSET CHANGED FROM -6 TO -9
OFFSET CHANGED FROM -9 TO -6
OFFSET CHANGED FROM -6 TO -6
OFFSET CHANGED FROM -6 TO -6
OFFSET CHANGED FROM -6 TO -6
OFFSET CHANGED FROM -6 TO -6
OFFSET CHANGED FROM -6 TO -6
OFFSET CHANGED FROM -6 TO -6
OFFSET CHANGED FROM -6 TO -6
OFFSET CHANGED FROM -6 TO -6
OFFSET CHANGED FROM -6 TO -6
OFFSET CHANGED FROM -6 TO -6
OFFSET CHANGED FROM -6 TO -9
OFFSET CHANGED FROM -9 TO -9
OFFSET CHANGED FROM -9 TO -6
OFFSET CHANGED FROM -6 TO -6
OFFSET CHANGED FROM -6 TO -6
OFFSET CHANGED FROM -6 TO -6
OFFSET CHANGED FROM -6 TO -6
OFFSET CHANGED FROM -6 TO -6
OFFSET CHANGED FROM -6 TO -6
OFFSET CHANGED FROM -6 TO -6
OFFSET CHANGED FROM -6 TO -6
OFFSET CHANGED FROM -6 TO -6
OFFSET CHANGED FROM -6 TO -6
OFFSET CHANGED FROM -6 TO -6
OFFSET CHANGED FROM -6 TO -6
OFFSET CHANGED FROM -6 TO -9
OFFSET CHANGED FROM -9 TO -6
OFFSET CHANGED FROM -6 TO -6
OFFSET CHANGED FROM -6 TO -6
OFFSET CHANGED FROM -6 TO -6
OFFSET CHANGED FROM -6 TO -6
OFFSET CHANGED FROM -6 TO -6
OFFSET CHANGED FROM -6 TO -6
OFFSET CHANGED FROM -6 TO -6
OFFSET CHANGED FROM -6 TO -6
OFFSET CHANGED FROM -6 TO -9
OFFSET CHANGED FROM -9 TO -9
OFFSET CHANGED FROM -9 TO -6
OFFSET CHANGED FROM -6 TO -6
OFFSET CHANGED FROM -6 TO -9
OFFSET CHANGED FROM -9 TO -6
OFFSET CHANGED FROM -6 TO -6
OFFSET CHANGED FROM -6 TO -6
OFFSET CHANGED FROM -6 TO -6
OFFSET CHANGED FROM -6 TO -6
OFFSET CHANGED FROM -6 TO -9
OFFSET CHANGED FROM -9 TO -6
OFFSET CHANGED FROM -6 TO -3
OFFSET CHANGED FROM -3 TO -6
OFFSET CHANGED FROM -6 TO -6
OFFSET CHANGED FROM -6 TO -3
OFFSET CHANGED FROM -3 TO -3
OFFSET CHANGED FROM -3 TO -3
OFFSET CHANGED FROM -3 TO -3
OFFSET CHANGED FROM -3 TO -3
OFFSET CHANGED FROM -3 TO -6
OFFSET CHANGED FROM -6 TO -3
OFFSET CHANGED FROM -3 TO -6
OFFSET CHANGED FROM -6 TO -6
OFFSET CHANGED FROM -6 TO -6
OFFSET CHANGED FROM -6 TO -6
OFFSET CHANGED FROM -6 TO -6
OFFSET CHANGED FROM -6 TO -3
OFFSET CHANGED FROM -3 TO -6
OFFSET CHANGED FROM -6 TO -3
OFFSET CHANGED FROM -3 TO -3
OFFSET CHANGED FROM -3 TO -3
OFFSET CHANGED FROM -3 TO -6
OFFSET CHANGED FROM -6 TO -6
OFFSET CHANGED FROM -6 TO -6
OFFSET CHANGED FROM -6 TO -6
OFFSET CHANGED FROM -6 TO -6
OFFSET CHANGED FROM -6 TO -6
OFFSET CHANGED FROM -6 TO -6
OFFSET CHANGED FROM -6 TO -9
OFFSET CHANGED FROM -9 TO -6
OFFSET CHANGED FROM -6 TO -6
OFFSET CHANGED FROM -6 TO -6
OFFSET CHANGED FROM -6 TO -6
OFFSET CHANGED FROM -6 TO -6
OFFSET CHANGED FROM -6 TO -6
OFFSET CHANGED FROM -6 TO -6
OFFSET CHANGED FROM -6 TO -12
OFFSET CHANGED FROM -12 TO -9
OFFSET CHANGED FROM -9 TO -6
OFFSET CHANGED FROM -6 TO -6
OFFSET CHANGED FROM -6 TO -6
OFFSET CHANGED FROM -6 TO -6
OFFSET CHANGED FROM -6 TO -6
OFFSET CHANGED FROM -6 TO -6
OFFSET CHANGED FROM -6 TO -9
OFFSET CHANGED FROM -9 TO -12
OFFSET CHANGED FROM -12 TO -6
OFFSET CHANGED FROM -6 TO -6
OFFSET CHANGED FROM -6 TO -6
OFFSET CHANGED FROM -6 TO -6
OFFSET CHANGED FROM -6 TO -6
OFFSET CHANGED FROM -6 TO -6
OFFSET CHANGED FROM -6 TO -6
OFFSET CHANGED FROM -6 TO -6
OFFSET CHANGED FROM -6 TO -6
OFFSET CHANGED FROM -6 TO -6
OFFSET CHANGED FROM -6 TO -6
OFFSET CHANGED FROM -6 TO -9
OFFSET CHANGED FROM -9 TO -6
OFFSET CHANGED FROM -6 TO -9
OFFSET CHANGED FROM -9 TO -6
OFFSET CHANGED FROM -6 TO -6
OFFSET CHANGED FROM -6 TO -6
OFFSET CHANGED FROM -6 TO -6
OFFSET CHANGED FROM -6 TO -6
OFFSET CHANGED FROM -6 TO -6
OFFSET CHANGED FROM -6 TO -6
OFFSET CHANGED FROM -6 TO -6
OFFSET CHANGED FROM -6 TO -6
OFFSET CHANGED FROM -6 TO -9
OFFSET CHANGED FROM -9 TO -9
OFFSET CHANGED FROM -9 TO -6
OFFSET CHANGED FROM -6 TO -9
OFFSET CHANGED FROM -9 TO -9
OFFSET CHANGED FROM -9 TO -6
OFFSET CHANGED FROM -6 TO -6
OFFSET CHANGED FROM -6 TO -6
OFFSET CHANGED FROM -6 TO -6
OFFSET CHANGED FROM -6 TO -6
OFFSET CHANGED FROM -6 TO -6
OFFSET CHANGED FROM -6 TO -6
OFFSET CHANGED FROM -6 TO -6
OFFSET CHANGED FROM -6 TO -6
OFFSET CHANGED FROM -6 TO -6
OFFSET CHANGED FROM -6 TO -6
OFFSET CHANGED FROM -6 TO -6
OFFSET CHANGED FROM -6 TO -6
OFFSET CHANGED FROM -6 TO -9
OFFSET CHANGED FROM -9 TO -6
OFFSET CHANGED FROM -6 TO -6
OFFSET CHANGED FROM -6 TO -6
OFFSET CHANGED FROM -6 TO -6
OFFSET CHANGED FROM -6 TO -6
OFFSET CHANGED FROM -6 TO -6
OFFSET CHANGED FROM -6 TO -6
OFFSET CHANGED FROM -6 TO -6
OFFSET CHANGED FROM -6 TO -6
OFFSET CHANGED FROM -6 TO -6
OFFSET CHANGED FROM -6 TO -6
OFFSET CHANGED FROM -6 TO -6
OFFSET CHANGED FROM -6 TO -6
OFFSET CHANGED FROM -6 TO -6
OFFSET CHANGED FROM -6 TO -6
OFFSET CHANGED FROM -6 TO -6
OFFSET CHANGED FROM -6 TO -6
OFFSET CHANGED FROM -6 TO -6
OFFSET CHANGED FROM -6 TO -6
OFFSET CHANGED FROM -6 TO -6
OFFSET CHANGED FROM -6 TO -6
OFFSET CHANGED FROM -6 TO -6
OFFSET CHANGED FROM -6 TO -6
OFFSET CHANGED FROM -6 TO -6
OFFSET CHANGED FROM -6 TO -6
OFFSET CHANGED FROM -6 TO -6
OFFSET CHANGED FROM -6 TO -6
OFFSET CHANGED FROM -6 TO -6
OFFSET CHANGED FROM -6 TO -6
OFFSET CHANGED FROM -6 TO -6
OFFSET CHANGED FROM -6 TO -6
OFFSET CHANGED FROM -6 TO -6
OFFSET CHANGED FROM -6 TO -6
OFFSET CHANGED FROM -6 TO -6
OFFSET CHANGED FROM -6 TO -6
OFFSET CHANGED FROM -6 TO -6
OFFSET CHANGED FROM -6 TO -6
OFFSET CHANGED FROM -6 TO -6
OFFSET CHANGED FROM -6 TO -6
OFFSET CHANGED FROM -6 TO -6
OFFSET CHANGED FROM -6 TO -6
OFFSET CHANGED FROM -6 TO -6
OFFSET CHANGED FROM -6 TO -6
OFFSET CHANGED FROM -6 TO -6
OFFSET CHANGED FROM -6 TO -6
OFFSET CHANGED FROM -6 TO -6
OFFSET CHANGED FROM -6 TO -6
OFFSET CHANGED FROM -6 TO -6
OFFSET CHANGED FROM -6 TO -9
OFFSET CHANGED FROM -9 TO -9
OFFSET CHANGED FROM -9 TO -6
OFFSET CHANGED FROM -6 TO -6
OFFSET CHANGED FROM -6 TO -6
OFFSET CHANGED FROM -6 TO -6
OFFSET CHANGED FROM -6 TO -6
OFFSET CHANGED FROM -6 TO -6
OFFSET CHANGED FROM -6 TO -6
OFFSET CHANGED FROM -6 TO -6
OFFSET CHANGED FROM -6 TO -6
OFFSET CHANGED FROM -6 TO -6
OFFSET CHANGED FROM -6 TO -6
OFFSET CHANGED FROM -6 TO -6
OFFSET CHANGED FROM -6 TO -6
OFFSET CHANGED FROM -6 TO -6
OFFSET CHANGED FROM -6 TO -9
OFFSET CHANGED FROM -9 TO -6
OFFSET CHANGED FROM -6 TO -6
OFFSET CHANGED FROM -6 TO -6
OFFSET CHANGED FROM -6 TO -6
OFFSET CHANGED FROM -6 TO -6
OFFSET CHANGED FROM -6 TO -6
OFFSET CHANGED FROM -6 TO -6
OFFSET CHANGED FROM -6 TO -6
OFFSET CHANGED FROM -6 TO -6
OFFSET CHANGED FROM -6 TO -9
OFFSET CHANGED FROM -9 TO -6
OFFSET CHANGED FROM -6 TO -6
OFFSET CHANGED FROM -6 TO -6
OFFSET CHANGED FROM -6 TO -6
OFFSET CHANGED FROM -6 TO -6
OFFSET CHANGED FROM -6 TO -6
OFFSET CHANGED FROM -6 TO -6
OFFSET CHANGED FROM -6 TO -6
OFFSET CHANGED FROM -6 TO -6
OFFSET CHANGED FROM -6 TO -6
OFFSET CHANGED FROM -6 TO -6
OFFSET CHANGED FROM -6 TO -6
OFFSET CHANGED FROM -6 TO -6
OFFSET CHANGED FROM -6 TO -6
OFFSET CHANGED FROM -6 TO -9
OFFSET CHANGED FROM -9 TO -6
OFFSET CHANGED FROM -6 TO -6
OFFSET CHANGED FROM -6 TO -6
OFFSET CHANGED FROM -6 TO -6
OFFSET CHANGED FROM -6 TO -6
OFFSET CHANGED FROM -6 TO -6
OFFSET CHANGED FROM -6 TO -6
OFFSET CHANGED FROM -6 TO -9
OFFSET CHANGED FROM -9 TO -6
OFFSET CHANGED FROM -6 TO -6
OFFSET CHANGED FROM -6 TO -6
OFFSET CHANGED FROM -6 TO -6
OFFSET CHANGED FROM -6 TO -6
OFFSET CHANGED FROM -6 TO -6
OFFSET CHANGED FROM -6 TO -6
OFFSET CHANGED FROM -6 TO -6
OFFSET CHANGED FROM -6 TO -6
OFFSET CHANGED FROM -6 TO -6
OFFSET CHANGED FROM -6 TO -6
OFFSET CHANGED FROM -6 TO -6
OFFSET CHANGED FROM -6 TO -6
OFFSET CHANGED FROM -6 TO -6
OFFSET CHANGED FROM -6 TO -6
OFFSET CHANGED FROM -6 TO -6
OFFSET CHANGED FROM -6 TO -6
OFFSET CHANGED FROM -6 TO -6
OFFSET CHANGED FROM -6 TO -6
OFFSET CHANGED FROM -6 TO -6
OFFSET CHANGED FROM -6 TO -6
OFFSET CHANGED FROM -6 TO -6
OFFSET CHANGED FROM -6 TO -6
OFFSET CHANGED FROM -6 TO -6
OFFSET CHANGED FROM -6 TO -6
OFFSET CHANGED FROM -6 TO -6
OFFSET CHANGED FROM -6 TO -6
OFFSET CHANGED FROM -6 TO -6
OFFSET CHANGED FROM -6 TO -6
OFFSET CHANGED FROM -6 TO -6
OFFSET CHANGED FROM -6 TO -6
OFFSET CHANGED FROM -6 TO -6
OFFSET CHANGED FROM -6 TO -6
OFFSET CHANGED FROM -6 TO -6
OFFSET CHANGED FROM -6 TO -6
OFFSET CHANGED FROM -6 TO -9
OFFSET CHANGED FROM -9 TO -9
OFFSET CHANGED FROM -9 TO -9
OFFSET CHANGED FROM -9 TO -6
OFFSET CHANGED FROM -6 TO -6
OFFSET CHANGED FROM -6 TO -6
OFFSET CHANGED FROM -6 TO -6
OFFSET CHANGED FROM -6 TO -9
OFFSET CHANGED FROM -9 TO -9
OFFSET CHANGED FROM -9 TO -9
OFFSET CHANGED FROM -9 TO -9
OFFSET CHANGED FROM -9 TO -6
OFFSET CHANGED FROM -6 TO -6
OFFSET CHANGED FROM -6 TO -6
OFFSET CHANGED FROM -6 TO -6
OFFSET CHANGED FROM -6 TO -6
OFFSET CHANGED FROM -6 TO -6
OFFSET CHANGED FROM -6 TO -6
OFFSET CHANGED FROM -6 TO -6
OFFSET CHANGED FROM -6 TO -9
OFFSET CHANGED FROM -9 TO -6
OFFSET CHANGED FROM -6 TO -6
OFFSET CHANGED FROM -6 TO -6
OFFSET CHANGED FROM -6 TO -6
OFFSET CHANGED FROM -6 TO -6
OFFSET CHANGED FROM -6 TO -6
OFFSET CHANGED FROM -6 TO -6
OFFSET CHANGED FROM -6 TO -6
OFFSET CHANGED FROM -6 TO -6
OFFSET CHANGED FROM -6 TO -6
OFFSET CHANGED FROM -6 TO -9
OFFSET CHANGED FROM -9 TO -9
OFFSET CHANGED FROM -9 TO -6
OFFSET CHANGED FROM -6 TO -6
OFFSET CHANGED FROM -6 TO -6
OFFSET CHANGED FROM -6 TO -6
OFFSET CHANGED FROM -6 TO -6
OFFSET CHANGED FROM -6 TO -6
OFFSET CHANGED FROM -6 TO -6
OFFSET CHANGED FROM -6 TO -6
OFFSET CHANGED FROM -6 TO -6
OFFSET CHANGED FROM -6 TO -6
OFFSET CHANGED FROM -6 TO -6
OFFSET CHANGED FROM -6 TO -6
OFFSET CHANGED FROM -6 TO -6
OFFSET CHANGED FROM -6 TO -6
OFFSET CHANGED FROM -6 TO -6
OFFSET CHANGED FROM -6 TO -6
OFFSET CHANGED FROM -6 TO -6
OFFSET CHANGED FROM -6 TO -6
OFFSET CHANGED FROM -6 TO -6
OFFSET CHANGED FROM -6 TO -6
OFFSET CHANGED FROM -6 TO -9
OFFSET CHANGED FROM -9 TO -6
OFFSET CHANGED FROM -6 TO -6
OFFSET CHANGED FROM -6 TO -6
OFFSET CHANGED FROM -6 TO -6
OFFSET CHANGED FROM -6 TO -6
OFFSET CHANGED FROM -6 TO -9
OFFSET CHANGED FROM -9 TO -9
OFFSET CHANGED FROM -9 TO -6
OFFSET CHANGED FROM -6 TO -6
OFFSET CHANGED FROM -6 TO -6
OFFSET CHANGED FROM -6 TO -6
OFFSET CHANGED FROM -6 TO -6
OFFSET CHANGED FROM -6 TO -3
OFFSET CHANGED FROM -3 TO -2
Heartbeat CPU 0 instructions: 60000001 cycles: 50683543 heartbeat IPC: 0.335105 cumulative IPC: 0.335105 (Simulation time: 0 hr 2 min 48 sec) 
OFFSET CHANGED FROM -2 TO -6
OFFSET CHANGED FROM -6 TO -3
OFFSET CHANGED FROM -3 TO -3
OFFSET CHANGED FROM -3 TO -3
OFFSET CHANGED FROM -3 TO -3
OFFSET CHANGED FROM -3 TO -3
OFFSET CHANGED FROM -3 TO -3
OFFSET CHANGED FROM -3 TO -3
OFFSET CHANGED FROM -3 TO -3
OFFSET CHANGED FROM -3 TO -3
OFFSET CHANGED FROM -3 TO -3
OFFSET CHANGED FROM -3 TO -3
OFFSET CHANGED FROM -3 TO -6
OFFSET CHANGED FROM -6 TO -9
OFFSET CHANGED FROM -9 TO -6
OFFSET CHANGED FROM -6 TO -6
OFFSET CHANGED FROM -6 TO -6
OFFSET CHANGED FROM -6 TO -6
OFFSET CHANGED FROM -6 TO -6
OFFSET CHANGED FROM -6 TO -6
OFFSET CHANGED FROM -6 TO -6
OFFSET CHANGED FROM -6 TO -6
OFFSET CHANGED FROM -6 TO -9
OFFSET CHANGED FROM -9 TO -9
OFFSET CHANGED FROM -9 TO -12
OFFSET CHANGED FROM -12 TO -9
OFFSET CHANGED FROM -9 TO -9
OFFSET CHANGED FROM -9 TO -6
OFFSET CHANGED FROM -6 TO -6
OFFSET CHANGED FROM -6 TO -6
OFFSET CHANGED FROM -6 TO -6
OFFSET CHANGED FROM -6 TO -6
OFFSET CHANGED FROM -6 TO -6
OFFSET CHANGED FROM -6 TO -6
OFFSET CHANGED FROM -6 TO -6
OFFSET CHANGED FROM -6 TO -6
OFFSET CHANGED FROM -6 TO -6
OFFSET CHANGED FROM -6 TO -9
OFFSET CHANGED FROM -9 TO -12
OFFSET CHANGED FROM -12 TO -6
OFFSET CHANGED FROM -6 TO -6
OFFSET CHANGED FROM -6 TO -6
OFFSET CHANGED FROM -6 TO -6
OFFSET CHANGED FROM -6 TO -6
OFFSET CHANGED FROM -6 TO -6
OFFSET CHANGED FROM -6 TO -3
OFFSET CHANGED FROM -3 TO -3
OFFSET CHANGED FROM -3 TO -3
OFFSET CHANGED FROM -3 TO -3
OFFSET CHANGED FROM -3 TO -3
OFFSET CHANGED FROM -3 TO -6
OFFSET CHANGED FROM -6 TO -3
OFFSET CHANGED FROM -3 TO -3
OFFSET CHANGED FROM -3 TO -3
OFFSET CHANGED FROM -3 TO -3
OFFSET CHANGED FROM -3 TO -6
OFFSET CHANGED FROM -6 TO -3
OFFSET CHANGED FROM -3 TO -6
OFFSET CHANGED FROM -6 TO -6
OFFSET CHANGED FROM -6 TO -6
OFFSET CHANGED FROM -6 TO -6
OFFSET CHANGED FROM -6 TO -6
OFFSET CHANGED FROM -6 TO -6
OFFSET CHANGED FROM -6 TO -6
OFFSET CHANGED FROM -6 TO -6
OFFSET CHANGED FROM -6 TO -6
OFFSET CHANGED FROM -6 TO -6
OFFSET CHANGED FROM -6 TO -6
OFFSET CHANGED FROM -6 TO -6
OFFSET CHANGED FROM -6 TO -6
OFFSET CHANGED FROM -6 TO -6
OFFSET CHANGED FROM -6 TO -6
OFFSET CHANGED FROM -6 TO -6
OFFSET CHANGED FROM -6 TO -6
OFFSET CHANGED FROM -6 TO -6
OFFSET CHANGED FROM -6 TO -9
OFFSET CHANGED FROM -9 TO -6
OFFSET CHANGED FROM -6 TO -6
OFFSET CHANGED FROM -6 TO -6
OFFSET CHANGED FROM -6 TO -6
OFFSET CHANGED FROM -6 TO -6
OFFSET CHANGED FROM -6 TO -6
OFFSET CHANGED FROM -6 TO -6
OFFSET CHANGED FROM -6 TO -6
OFFSET CHANGED FROM -6 TO -9
OFFSET CHANGED FROM -9 TO -6
OFFSET CHANGED FROM -6 TO -6
OFFSET CHANGED FROM -6 TO -6
OFFSET CHANGED FROM -6 TO -12
OFFSET CHANGED FROM -12 TO -9
OFFSET CHANGED FROM -9 TO -6
OFFSET CHANGED FROM -6 TO -6
OFFSET CHANGED FROM -6 TO -6
OFFSET CHANGED FROM -6 TO -6
OFFSET CHANGED FROM -6 TO -6
OFFSET CHANGED FROM -6 TO -6
OFFSET CHANGED FROM -6 TO -6
OFFSET CHANGED FROM -6 TO -9
OFFSET CHANGED FROM -9 TO -9
OFFSET CHANGED FROM -9 TO -6
OFFSET CHANGED FROM -6 TO -6
OFFSET CHANGED FROM -6 TO -6
OFFSET CHANGED FROM -6 TO -6
PREFETCHING INTO L2 w/ PREFETCH SCORE 31 (MSHR OCC = 30)
OFFSET CHANGED FROM -6 TO -6
OFFSET CHANGED FROM -6 TO -6
OFFSET CHANGED FROM -6 TO -6
OFFSET CHANGED FROM -6 TO -6
OFFSET CHANGED FROM -6 TO -6
OFFSET CHANGED FROM -6 TO -6
OFFSET CHANGED FROM -6 TO -6
OFFSET CHANGED FROM -6 TO -6
OFFSET CHANGED FROM -6 TO -6
OFFSET CHANGED FROM -6 TO -6
OFFSET CHANGED FROM -6 TO -6
OFFSET CHANGED FROM -6 TO -6
OFFSET CHANGED FROM -6 TO -6
OFFSET CHANGED FROM -6 TO -6
OFFSET CHANGED FROM -6 TO -6
OFFSET CHANGED FROM -6 TO -6
OFFSET CHANGED FROM -6 TO -9
OFFSET CHANGED FROM -9 TO -6
OFFSET CHANGED FROM -6 TO -6
OFFSET CHANGED FROM -6 TO -9
OFFSET CHANGED FROM -9 TO -6
OFFSET CHANGED FROM -6 TO -6
OFFSET CHANGED FROM -6 TO -6
OFFSET CHANGED FROM -6 TO -6
OFFSET CHANGED FROM -6 TO -6
OFFSET CHANGED FROM -6 TO -6
OFFSET CHANGED FROM -6 TO -6
OFFSET CHANGED FROM -6 TO -6
OFFSET CHANGED FROM -6 TO -6
OFFSET CHANGED FROM -6 TO -6
OFFSET CHANGED FROM -6 TO -6
OFFSET CHANGED FROM -6 TO -6
OFFSET CHANGED FROM -6 TO -6
OFFSET CHANGED FROM -6 TO -6
OFFSET CHANGED FROM -6 TO -6
OFFSET CHANGED FROM -6 TO -6
OFFSET CHANGED FROM -6 TO -6
OFFSET CHANGED FROM -6 TO -6
OFFSET CHANGED FROM -6 TO -6
OFFSET CHANGED FROM -6 TO -6
OFFSET CHANGED FROM -6 TO -6
OFFSET CHANGED FROM -6 TO -6
OFFSET CHANGED FROM -6 TO -6
OFFSET CHANGED FROM -6 TO -6
OFFSET CHANGED FROM -6 TO -6
OFFSET CHANGED FROM -6 TO -6
OFFSET CHANGED FROM -6 TO -6
OFFSET CHANGED FROM -6 TO -6
OFFSET CHANGED FROM -6 TO -6
OFFSET CHANGED FROM -6 TO -6
OFFSET CHANGED FROM -6 TO -9
OFFSET CHANGED FROM -9 TO -6
OFFSET CHANGED FROM -6 TO -3
OFFSET CHANGED FROM -3 TO -6
OFFSET CHANGED FROM -6 TO -6
OFFSET CHANGED FROM -6 TO -6
OFFSET CHANGED FROM -6 TO -6
OFFSET CHANGED FROM -6 TO -6
OFFSET CHANGED FROM -6 TO -6
OFFSET CHANGED FROM -6 TO -6
OFFSET CHANGED FROM -6 TO -6
OFFSET CHANGED FROM -6 TO -6
OFFSET CHANGED FROM -6 TO -9
OFFSET CHANGED FROM -9 TO -6
OFFSET CHANGED FROM -6 TO -9
OFFSET CHANGED FROM -9 TO -6
OFFSET CHANGED FROM -6 TO -6
OFFSET CHANGED FROM -6 TO -6
OFFSET CHANGED FROM -6 TO -6
OFFSET CHANGED FROM -6 TO -6
OFFSET CHANGED FROM -6 TO -6
OFFSET CHANGED FROM -6 TO -6
OFFSET CHANGED FROM -6 TO -6
OFFSET CHANGED FROM -6 TO -6
OFFSET CHANGED FROM -6 TO -6
OFFSET CHANGED FROM -6 TO -6
OFFSET CHANGED FROM -6 TO -6
OFFSET CHANGED FROM -6 TO -6
OFFSET CHANGED FROM -6 TO -6
OFFSET CHANGED FROM -6 TO -6
OFFSET CHANGED FROM -6 TO -6
OFFSET CHANGED FROM -6 TO -6
OFFSET CHANGED FROM -6 TO -6
OFFSET CHANGED FROM -6 TO -6
OFFSET CHANGED FROM -6 TO -6
OFFSET CHANGED FROM -6 TO -6
OFFSET CHANGED FROM -6 TO -6
OFFSET CHANGED FROM -6 TO -6
OFFSET CHANGED FROM -6 TO -6
OFFSET CHANGED FROM -6 TO -6
OFFSET CHANGED FROM -6 TO -6
OFFSET CHANGED FROM -6 TO -6
OFFSET CHANGED FROM -6 TO -6
OFFSET CHANGED FROM -6 TO -9
OFFSET CHANGED FROM -9 TO -9
OFFSET CHANGED FROM -9 TO -6
OFFSET CHANGED FROM -6 TO -6
OFFSET CHANGED FROM -6 TO -6
OFFSET CHANGED FROM -6 TO -6
OFFSET CHANGED FROM -6 TO -6
OFFSET CHANGED FROM -6 TO -6
OFFSET CHANGED FROM -6 TO -6
OFFSET CHANGED FROM -6 TO -6
OFFSET CHANGED FROM -6 TO -6
OFFSET CHANGED FROM -6 TO -6
OFFSET CHANGED FROM -6 TO -6
OFFSET CHANGED FROM -6 TO -6
OFFSET CHANGED FROM -6 TO -6
OFFSET CHANGED FROM -6 TO -6
OFFSET CHANGED FROM -6 TO -6
OFFSET CHANGED FROM -6 TO -9
OFFSET CHANGED FROM -9 TO -6
OFFSET CHANGED FROM -6 TO -6
OFFSET CHANGED FROM -6 TO -9
OFFSET CHANGED FROM -9 TO -6
OFFSET CHANGED FROM -6 TO -6
OFFSET CHANGED FROM -6 TO -6
OFFSET CHANGED FROM -6 TO -9
OFFSET CHANGED FROM -9 TO -9
Heartbeat CPU 0 instructions: 70000000 cycles: 68437739 heartbeat IPC: 0.563247 cumulative IPC: 0.420207 (Simulation time: 0 hr 3 min 15 sec) 
OFFSET CHANGED FROM -9 TO -6
OFFSET CHANGED FROM -6 TO -9
OFFSET CHANGED FROM -9 TO -6
OFFSET CHANGED FROM -6 TO -6
OFFSET CHANGED FROM -6 TO -6
OFFSET CHANGED FROM -6 TO -6
OFFSET CHANGED FROM -6 TO -6
OFFSET CHANGED FROM -6 TO -6
OFFSET CHANGED FROM -6 TO -6
OFFSET CHANGED FROM -6 TO -6
OFFSET CHANGED FROM -6 TO -6
OFFSET CHANGED FROM -6 TO -6
OFFSET CHANGED FROM -6 TO -9
OFFSET CHANGED FROM -9 TO -6
OFFSET CHANGED FROM -6 TO -9
OFFSET CHANGED FROM -9 TO -9
OFFSET CHANGED FROM -9 TO -12
OFFSET CHANGED FROM -12 TO -6
OFFSET CHANGED FROM -6 TO -6
OFFSET CHANGED FROM -6 TO -6
OFFSET CHANGED FROM -6 TO -6
OFFSET CHANGED FROM -6 TO -9
OFFSET CHANGED FROM -9 TO -12
OFFSET CHANGED FROM -12 TO -6
OFFSET CHANGED FROM -6 TO -9
OFFSET CHANGED FROM -9 TO -6
OFFSET CHANGED FROM -6 TO -6
OFFSET CHANGED FROM -6 TO -6
OFFSET CHANGED FROM -6 TO -6
OFFSET CHANGED FROM -6 TO -6
OFFSET CHANGED FROM -6 TO -6
OFFSET CHANGED FROM -6 TO -6
OFFSET CHANGED FROM -6 TO -6
OFFSET CHANGED FROM -6 TO -6
OFFSET CHANGED FROM -6 TO -6
OFFSET CHANGED FROM -6 TO -6
OFFSET CHANGED FROM -6 TO -6
OFFSET CHANGED FROM -6 TO -9
OFFSET CHANGED FROM -9 TO -6
OFFSET CHANGED FROM -6 TO -6
OFFSET CHANGED FROM -6 TO -6
OFFSET CHANGED FROM -6 TO -6
OFFSET CHANGED FROM -6 TO -6
OFFSET CHANGED FROM -6 TO -6
OFFSET CHANGED FROM -6 TO -6
OFFSET CHANGED FROM -6 TO -6
OFFSET CHANGED FROM -6 TO -6
OFFSET CHANGED FROM -6 TO -6
OFFSET CHANGED FROM -6 TO -6
OFFSET CHANGED FROM -6 TO -6
OFFSET CHANGED FROM -6 TO -6
OFFSET CHANGED FROM -6 TO -12
OFFSET CHANGED FROM -12 TO -6
OFFSET CHANGED FROM -6 TO -6
OFFSET CHANGED FROM -6 TO -6
OFFSET CHANGED FROM -6 TO -6
OFFSET CHANGED FROM -6 TO -6
OFFSET CHANGED FROM -6 TO -9
OFFSET CHANGED FROM -9 TO -6
OFFSET CHANGED FROM -6 TO -9
OFFSET CHANGED FROM -9 TO -6
OFFSET CHANGED FROM -6 TO -6
PREFETCHING INTO L2 w/ PREFETCH SCORE 31 (MSHR OCC = 30)
OFFSET CHANGED FROM -6 TO -6
OFFSET CHANGED FROM -6 TO -6
OFFSET CHANGED FROM -6 TO -6
OFFSET CHANGED FROM -6 TO -6
OFFSET CHANGED FROM -6 TO -6
OFFSET CHANGED FROM -6 TO -6
OFFSET CHANGED FROM -6 TO -6
OFFSET CHANGED FROM -6 TO -6
OFFSET CHANGED FROM -6 TO -6
OFFSET CHANGED FROM -6 TO -6
OFFSET CHANGED FROM -6 TO -6
OFFSET CHANGED FROM -6 TO -6
OFFSET CHANGED FROM -6 TO -6
OFFSET CHANGED FROM -6 TO -9
OFFSET CHANGED FROM -9 TO -9
OFFSET CHANGED FROM -9 TO -6
OFFSET CHANGED FROM -6 TO -6
OFFSET CHANGED FROM -6 TO -6
OFFSET CHANGED FROM -6 TO -6
OFFSET CHANGED FROM -6 TO -6
OFFSET CHANGED FROM -6 TO -6
OFFSET CHANGED FROM -6 TO -6
OFFSET CHANGED FROM -6 TO -6
OFFSET CHANGED FROM -6 TO -6
OFFSET CHANGED FROM -6 TO -6
OFFSET CHANGED FROM -6 TO -6
OFFSET CHANGED FROM -6 TO -6
OFFSET CHANGED FROM -6 TO -9
OFFSET CHANGED FROM -9 TO -9
OFFSET CHANGED FROM -9 TO -6
OFFSET CHANGED FROM -6 TO -6
OFFSET CHANGED FROM -6 TO -6
OFFSET CHANGED FROM -6 TO -6
OFFSET CHANGED FROM -6 TO -6
OFFSET CHANGED FROM -6 TO -6
OFFSET CHANGED FROM -6 TO -6
OFFSET CHANGED FROM -6 TO -6
OFFSET CHANGED FROM -6 TO -6
OFFSET CHANGED FROM -6 TO -9
OFFSET CHANGED FROM -9 TO -9
OFFSET CHANGED FROM -9 TO -6
OFFSET CHANGED FROM -6 TO -9
OFFSET CHANGED FROM -9 TO -9
OFFSET CHANGED FROM -9 TO -9
OFFSET CHANGED FROM -9 TO -9
OFFSET CHANGED FROM -9 TO -9
OFFSET CHANGED FROM -9 TO -6
OFFSET CHANGED FROM -6 TO -6
OFFSET CHANGED FROM -6 TO -9
OFFSET CHANGED FROM -9 TO -6
OFFSET CHANGED FROM -6 TO -6
OFFSET CHANGED FROM -6 TO -6
OFFSET CHANGED FROM -6 TO -9
OFFSET CHANGED FROM -9 TO -6
OFFSET CHANGED FROM -6 TO -6
OFFSET CHANGED FROM -6 TO -6
OFFSET CHANGED FROM -6 TO -6
OFFSET CHANGED FROM -6 TO -9
OFFSET CHANGED FROM -9 TO -6
OFFSET CHANGED FROM -6 TO -6
OFFSET CHANGED FROM -6 TO -6
OFFSET CHANGED FROM -6 TO -6
OFFSET CHANGED FROM -6 TO -6
OFFSET CHANGED FROM -6 TO -6
OFFSET CHANGED FROM -6 TO -6
OFFSET CHANGED FROM -6 TO -9
OFFSET CHANGED FROM -9 TO -6
OFFSET CHANGED FROM -6 TO -6
OFFSET CHANGED FROM -6 TO -6
OFFSET CHANGED FROM -6 TO -6
OFFSET CHANGED FROM -6 TO -6
OFFSET CHANGED FROM -6 TO -6
OFFSET CHANGED FROM -6 TO -6
OFFSET CHANGED FROM -6 TO -6
OFFSET CHANGED FROM -6 TO -9
OFFSET CHANGED FROM -9 TO -6
OFFSET CHANGED FROM -6 TO -6
OFFSET CHANGED FROM -6 TO -6
OFFSET CHANGED FROM -6 TO -6
OFFSET CHANGED FROM -6 TO -6
OFFSET CHANGED FROM -6 TO -6
OFFSET CHANGED FROM -6 TO -6
OFFSET CHANGED FROM -6 TO -6
OFFSET CHANGED FROM -6 TO -6
OFFSET CHANGED FROM -6 TO -6
OFFSET CHANGED FROM -6 TO -6
OFFSET CHANGED FROM -6 TO -6
OFFSET CHANGED FROM -6 TO -6
OFFSET CHANGED FROM -6 TO -6
OFFSET CHANGED FROM -6 TO -6
OFFSET CHANGED FROM -6 TO -6
OFFSET CHANGED FROM -6 TO -6
OFFSET CHANGED FROM -6 TO -6
OFFSET CHANGED FROM -6 TO -6
OFFSET CHANGED FROM -6 TO -6
OFFSET CHANGED FROM -6 TO -6
OFFSET CHANGED FROM -6 TO -6
OFFSET CHANGED FROM -6 TO -6
OFFSET CHANGED FROM -6 TO -6
OFFSET CHANGED FROM -6 TO -6
OFFSET CHANGED FROM -6 TO -6
OFFSET CHANGED FROM -6 TO -6
OFFSET CHANGED FROM -6 TO -6
OFFSET CHANGED FROM -6 TO -6
OFFSET CHANGED FROM -6 TO -6
OFFSET CHANGED FROM -6 TO -6
OFFSET CHANGED FROM -6 TO -6
OFFSET CHANGED FROM -6 TO -6
OFFSET CHANGED FROM -6 TO -6
OFFSET CHANGED FROM -6 TO -6
OFFSET CHANGED FROM -6 TO -6
OFFSET CHANGED FROM -6 TO -6
OFFSET CHANGED FROM -6 TO -6
OFFSET CHANGED FROM -6 TO -6
OFFSET CHANGED FROM -6 TO -6
OFFSET CHANGED FROM -6 TO -6
OFFSET CHANGED FROM -6 TO -6
OFFSET CHANGED FROM -6 TO -6
OFFSET CHANGED FROM -6 TO -6
OFFSET CHANGED FROM -6 TO -6
OFFSET CHANGED FROM -6 TO -6
OFFSET CHANGED FROM -6 TO -6
OFFSET CHANGED FROM -6 TO -6
OFFSET CHANGED FROM -6 TO -6
OFFSET CHANGED FROM -6 TO -6
OFFSET CHANGED FROM -6 TO -6
OFFSET CHANGED FROM -6 TO -6
OFFSET CHANGED FROM -6 TO -6
OFFSET CHANGED FROM -6 TO -6
OFFSET CHANGED FROM -6 TO -6
OFFSET CHANGED FROM -6 TO -6
OFFSET CHANGED FROM -6 TO -6
OFFSET CHANGED FROM -6 TO -6
OFFSET CHANGED FROM -6 TO -6
OFFSET CHANGED FROM -6 TO -6
OFFSET CHANGED FROM -6 TO -9
OFFSET CHANGED FROM -9 TO -6
OFFSET CHANGED FROM -6 TO -6
OFFSET CHANGED FROM -6 TO -6
OFFSET CHANGED FROM -6 TO -6
OFFSET CHANGED FROM -6 TO -6
OFFSET CHANGED FROM -6 TO -6
OFFSET CHANGED FROM -6 TO -6
OFFSET CHANGED FROM -6 TO -6
OFFSET CHANGED FROM -6 TO -6
OFFSET CHANGED FROM -6 TO -9
OFFSET CHANGED FROM -9 TO -6
OFFSET CHANGED FROM -6 TO -6
OFFSET CHANGED FROM -6 TO -6
OFFSET CHANGED FROM -6 TO -6
OFFSET CHANGED FROM -6 TO -6
OFFSET CHANGED FROM -6 TO -9
OFFSET CHANGED FROM -9 TO -6
OFFSET CHANGED FROM -6 TO -6
OFFSET CHANGED FROM -6 TO -6
OFFSET CHANGED FROM -6 TO -6
OFFSET CHANGED FROM -6 TO -9
OFFSET CHANGED FROM -9 TO -6
OFFSET CHANGED FROM -6 TO -6
OFFSET CHANGED FROM -6 TO -6
OFFSET CHANGED FROM -6 TO -9
OFFSET CHANGED FROM -9 TO -6
OFFSET CHANGED FROM -6 TO -6
OFFSET CHANGED FROM -6 TO -6
OFFSET CHANGED FROM -6 TO -6
OFFSET CHANGED FROM -6 TO -6
OFFSET CHANGED FROM -6 TO -6
OFFSET CHANGED FROM -6 TO -9
OFFSET CHANGED FROM -9 TO -6
OFFSET CHANGED FROM -6 TO -9
OFFSET CHANGED FROM -9 TO -6
OFFSET CHANGED FROM -6 TO -6
OFFSET CHANGED FROM -6 TO -6
OFFSET CHANGED FROM -6 TO -6
OFFSET CHANGED FROM -6 TO -6
OFFSET CHANGED FROM -6 TO -6
OFFSET CHANGED FROM -6 TO -6
OFFSET CHANGED FROM -6 TO -6
OFFSET CHANGED FROM -6 TO -6
OFFSET CHANGED FROM -6 TO -6
OFFSET CHANGED FROM -6 TO -6
OFFSET CHANGED FROM -6 TO -6
OFFSET CHANGED FROM -6 TO -6
OFFSET CHANGED FROM -6 TO -6
OFFSET CHANGED FROM -6 TO -6
OFFSET CHANGED FROM -6 TO -6
OFFSET CHANGED FROM -6 TO -6
OFFSET CHANGED FROM -6 TO -6
OFFSET CHANGED FROM -6 TO -6
OFFSET CHANGED FROM -6 TO -6
OFFSET CHANGED FROM -6 TO -6
OFFSET CHANGED FROM -6 TO -6
OFFSET CHANGED FROM -6 TO -6
OFFSET CHANGED FROM -6 TO -6
OFFSET CHANGED FROM -6 TO -6
OFFSET CHANGED FROM -6 TO -12
OFFSET CHANGED FROM -12 TO -6
OFFSET CHANGED FROM -6 TO -6
OFFSET CHANGED FROM -6 TO -6
OFFSET CHANGED FROM -6 TO -6
OFFSET CHANGED FROM -6 TO -6
OFFSET CHANGED FROM -6 TO -6
OFFSET CHANGED FROM -6 TO -6
OFFSET CHANGED FROM -6 TO -6
OFFSET CHANGED FROM -6 TO -6
OFFSET CHANGED FROM -6 TO -6
OFFSET CHANGED FROM -6 TO -9
OFFSET CHANGED FROM -9 TO -6
OFFSET CHANGED FROM -6 TO -6
OFFSET CHANGED FROM -6 TO -15
OFFSET CHANGED FROM -15 TO -6
OFFSET CHANGED FROM -6 TO -6
OFFSET CHANGED FROM -6 TO -6
OFFSET CHANGED FROM -6 TO -6
OFFSET CHANGED FROM -6 TO -6
OFFSET CHANGED FROM -6 TO -6
OFFSET CHANGED FROM -6 TO -6
OFFSET CHANGED FROM -6 TO -6
OFFSET CHANGED FROM -6 TO -6
OFFSET CHANGED FROM -6 TO -6
OFFSET CHANGED FROM -6 TO -6
OFFSET CHANGED FROM -6 TO -6
OFFSET CHANGED FROM -6 TO -6
OFFSET CHANGED FROM -6 TO -6
OFFSET CHANGED FROM -6 TO -6
OFFSET CHANGED FROM -6 TO -9
OFFSET CHANGED FROM -9 TO -6
OFFSET CHANGED FROM -6 TO -6
OFFSET CHANGED FROM -6 TO -6
OFFSET CHANGED FROM -6 TO -6
OFFSET CHANGED FROM -6 TO -6
OFFSET CHANGED FROM -6 TO -6
OFFSET CHANGED FROM -6 TO -6
OFFSET CHANGED FROM -6 TO -6
OFFSET CHANGED FROM -6 TO -6
OFFSET CHANGED FROM -6 TO -6
OFFSET CHANGED FROM -6 TO -9
OFFSET CHANGED FROM -9 TO -6
OFFSET CHANGED FROM -6 TO -6
OFFSET CHANGED FROM -6 TO -6
OFFSET CHANGED FROM -6 TO -6
OFFSET CHANGED FROM -6 TO -6
OFFSET CHANGED FROM -6 TO -6
OFFSET CHANGED FROM -6 TO -6
OFFSET CHANGED FROM -6 TO -6
OFFSET CHANGED FROM -6 TO -6
OFFSET CHANGED FROM -6 TO -6
OFFSET CHANGED FROM -6 TO -6
OFFSET CHANGED FROM -6 TO -9
OFFSET CHANGED FROM -9 TO -9
OFFSET CHANGED FROM -9 TO -6
OFFSET CHANGED FROM -6 TO -6
OFFSET CHANGED FROM -6 TO -6
OFFSET CHANGED FROM -6 TO -6
OFFSET CHANGED FROM -6 TO -6
OFFSET CHANGED FROM -6 TO -6
OFFSET CHANGED FROM -6 TO -6
OFFSET CHANGED FROM -6 TO -6
OFFSET CHANGED FROM -6 TO -6
OFFSET CHANGED FROM -6 TO -6
OFFSET CHANGED FROM -6 TO -6
OFFSET CHANGED FROM -6 TO -6
OFFSET CHANGED FROM -6 TO -6
OFFSET CHANGED FROM -6 TO -6
OFFSET CHANGED FROM -6 TO -6
OFFSET CHANGED FROM -6 TO -6
OFFSET CHANGED FROM -6 TO -6
OFFSET CHANGED FROM -6 TO -9
OFFSET CHANGED FROM -9 TO -6
OFFSET CHANGED FROM -6 TO -6
OFFSET CHANGED FROM -6 TO -6
OFFSET CHANGED FROM -6 TO -6
OFFSET CHANGED FROM -6 TO -6
OFFSET CHANGED FROM -6 TO -6
OFFSET CHANGED FROM -6 TO -6
OFFSET CHANGED FROM -6 TO -6
OFFSET CHANGED FROM -6 TO -9
OFFSET CHANGED FROM -9 TO -6
OFFSET CHANGED FROM -6 TO -6
OFFSET CHANGED FROM -6 TO -6
OFFSET CHANGED FROM -6 TO -6
OFFSET CHANGED FROM -6 TO -6
OFFSET CHANGED FROM -6 TO -6
OFFSET CHANGED FROM -6 TO -6
OFFSET CHANGED FROM -6 TO -6
OFFSET CHANGED FROM -6 TO -6
OFFSET CHANGED FROM -6 TO -6
OFFSET CHANGED FROM -6 TO -6
OFFSET CHANGED FROM -6 TO -6
OFFSET CHANGED FROM -6 TO -9
PREFETCHING INTO L2 w/ PREFETCH SCORE 31 (MSHR OCC = 29)
OFFSET CHANGED FROM -9 TO -6
OFFSET CHANGED FROM -6 TO -6
OFFSET CHANGED FROM -6 TO -6
OFFSET CHANGED FROM -6 TO -6
OFFSET CHANGED FROM -6 TO -6
OFFSET CHANGED FROM -6 TO -6
OFFSET CHANGED FROM -6 TO -6
OFFSET CHANGED FROM -6 TO -6
OFFSET CHANGED FROM -6 TO -6
OFFSET CHANGED FROM -6 TO -6
OFFSET CHANGED FROM -6 TO -6
OFFSET CHANGED FROM -6 TO -6
OFFSET CHANGED FROM -6 TO -6
OFFSET CHANGED FROM -6 TO -6
OFFSET CHANGED FROM -6 TO -9
OFFSET CHANGED FROM -9 TO -9
OFFSET CHANGED FROM -9 TO -6
OFFSET CHANGED FROM -6 TO -6
OFFSET CHANGED FROM -6 TO -6
OFFSET CHANGED FROM -6 TO -6
OFFSET CHANGED FROM -6 TO -6
OFFSET CHANGED FROM -6 TO -6
OFFSET CHANGED FROM -6 TO -9
OFFSET CHANGED FROM -9 TO -6
OFFSET CHANGED FROM -6 TO -6
OFFSET CHANGED FROM -6 TO -6
OFFSET CHANGED FROM -6 TO -6
OFFSET CHANGED FROM -6 TO -6
OFFSET CHANGED FROM -6 TO -6
OFFSET CHANGED FROM -6 TO -6
OFFSET CHANGED FROM -6 TO -6
OFFSET CHANGED FROM -6 TO -6
OFFSET CHANGED FROM -6 TO -9
OFFSET CHANGED FROM -9 TO -6
OFFSET CHANGED FROM -6 TO -6
OFFSET CHANGED FROM -6 TO -6
OFFSET CHANGED FROM -6 TO -6
OFFSET CHANGED FROM -6 TO -6
OFFSET CHANGED FROM -6 TO -6
OFFSET CHANGED FROM -6 TO -6
OFFSET CHANGED FROM -6 TO -6
OFFSET CHANGED FROM -6 TO -6
OFFSET CHANGED FROM -6 TO -3
OFFSET CHANGED FROM -3 TO -3
OFFSET CHANGED FROM -3 TO -3
OFFSET CHANGED FROM -3 TO -3
OFFSET CHANGED FROM -3 TO -2
OFFSET CHANGED FROM -2 TO -6
OFFSET CHANGED FROM -6 TO -3
OFFSET CHANGED FROM -3 TO -3
OFFSET CHANGED FROM -3 TO -3
OFFSET CHANGED FROM -3 TO -3
OFFSET CHANGED FROM -3 TO -3
OFFSET CHANGED FROM -3 TO -9
OFFSET CHANGED FROM -9 TO -3
OFFSET CHANGED FROM -3 TO -6
OFFSET CHANGED FROM -6 TO -6
OFFSET CHANGED FROM -6 TO -6
OFFSET CHANGED FROM -6 TO -6
OFFSET CHANGED FROM -6 TO -6
OFFSET CHANGED FROM -6 TO -6
OFFSET CHANGED FROM -6 TO -6
OFFSET CHANGED FROM -6 TO -6
OFFSET CHANGED FROM -6 TO -6
OFFSET CHANGED FROM -6 TO -6
OFFSET CHANGED FROM -6 TO -6
OFFSET CHANGED FROM -6 TO -6
OFFSET CHANGED FROM -6 TO -6
OFFSET CHANGED FROM -6 TO -6
OFFSET CHANGED FROM -6 TO -6
OFFSET CHANGED FROM -6 TO -6
OFFSET CHANGED FROM -6 TO -6
OFFSET CHANGED FROM -6 TO -9
OFFSET CHANGED FROM -9 TO -6
OFFSET CHANGED FROM -6 TO -6
OFFSET CHANGED FROM -6 TO -9
OFFSET CHANGED FROM -9 TO -6
OFFSET CHANGED FROM -6 TO -6
OFFSET CHANGED FROM -6 TO -6
OFFSET CHANGED FROM -6 TO -6
OFFSET CHANGED FROM -6 TO -6
OFFSET CHANGED FROM -6 TO -6
OFFSET CHANGED FROM -6 TO -6
OFFSET CHANGED FROM -6 TO -6
OFFSET CHANGED FROM -6 TO -6
OFFSET CHANGED FROM -6 TO -6
OFFSET CHANGED FROM -6 TO -6
OFFSET CHANGED FROM -6 TO -6
OFFSET CHANGED FROM -6 TO -6
OFFSET CHANGED FROM -6 TO -6
OFFSET CHANGED FROM -6 TO -6
OFFSET CHANGED FROM -6 TO -6
OFFSET CHANGED FROM -6 TO -3
OFFSET CHANGED FROM -3 TO -3
Heartbeat CPU 0 instructions: 80000001 cycles: 95234560 heartbeat IPC: 0.373179 cumulative IPC: 0.403267 (Simulation time: 0 hr 3 min 49 sec) 
OFFSET CHANGED FROM -3 TO -3
OFFSET CHANGED FROM -3 TO -3
OFFSET CHANGED FROM -3 TO -3
OFFSET CHANGED FROM -3 TO -3
OFFSET CHANGED FROM -3 TO -3
OFFSET CHANGED FROM -3 TO -4
OFFSET CHANGED FROM -4 TO -6
OFFSET CHANGED FROM -6 TO -3
OFFSET CHANGED FROM -3 TO -3
OFFSET CHANGED FROM -3 TO -3
OFFSET CHANGED FROM -3 TO -6
OFFSET CHANGED FROM -6 TO -6
OFFSET CHANGED FROM -6 TO -9
OFFSET CHANGED FROM -9 TO -9
OFFSET CHANGED FROM -9 TO -9
OFFSET CHANGED FROM -9 TO -6
OFFSET CHANGED FROM -6 TO -6
OFFSET CHANGED FROM -6 TO -6
OFFSET CHANGED FROM -6 TO -6
OFFSET CHANGED FROM -6 TO -6
OFFSET CHANGED FROM -6 TO -6
OFFSET CHANGED FROM -6 TO -6
OFFSET CHANGED FROM -6 TO -6
OFFSET CHANGED FROM -6 TO -6
OFFSET CHANGED FROM -6 TO -6
OFFSET CHANGED FROM -6 TO -6
OFFSET CHANGED FROM -6 TO -9
PREFETCHING INTO L2 w/ PREFETCH SCORE 31 (MSHR OCC = 30)
PREFETCHING INTO L2 w/ PREFETCH SCORE 31 (MSHR OCC = 30)
PREFETCHING INTO L2 w/ PREFETCH SCORE 31 (MSHR OCC = 30)
PREFETCHING INTO L2 w/ PREFETCH SCORE 31 (MSHR OCC = 30)
PREFETCHING INTO L2 w/ PREFETCH SCORE 31 (MSHR OCC = 30)
PREFETCHING INTO L2 w/ PREFETCH SCORE 31 (MSHR OCC = 28)
OFFSET CHANGED FROM -9 TO -6
OFFSET CHANGED FROM -6 TO -9
OFFSET CHANGED FROM -9 TO -6
OFFSET CHANGED FROM -6 TO -9
OFFSET CHANGED FROM -9 TO -9
OFFSET CHANGED FROM -9 TO -9
OFFSET CHANGED FROM -9 TO -6
OFFSET CHANGED FROM -6 TO -6
OFFSET CHANGED FROM -6 TO -6
OFFSET CHANGED FROM -6 TO -6
OFFSET CHANGED FROM -6 TO -6
OFFSET CHANGED FROM -6 TO -6
OFFSET CHANGED FROM -6 TO -9
OFFSET CHANGED FROM -9 TO -6
OFFSET CHANGED FROM -6 TO -6
OFFSET CHANGED FROM -6 TO -6
OFFSET CHANGED FROM -6 TO -6
OFFSET CHANGED FROM -6 TO -6
OFFSET CHANGED FROM -6 TO -6
OFFSET CHANGED FROM -6 TO -9
OFFSET CHANGED FROM -9 TO -9
OFFSET CHANGED FROM -9 TO -6
OFFSET CHANGED FROM -6 TO -6
OFFSET CHANGED FROM -6 TO -6
OFFSET CHANGED FROM -6 TO -6
OFFSET CHANGED FROM -6 TO -6
OFFSET CHANGED FROM -6 TO -6
OFFSET CHANGED FROM -6 TO -6
OFFSET CHANGED FROM -6 TO -6
OFFSET CHANGED FROM -6 TO -6
OFFSET CHANGED FROM -6 TO -6
OFFSET CHANGED FROM -6 TO -6
OFFSET CHANGED FROM -6 TO -6
OFFSET CHANGED FROM -6 TO -6
OFFSET CHANGED FROM -6 TO -6
OFFSET CHANGED FROM -6 TO -9
OFFSET CHANGED FROM -9 TO -12
OFFSET CHANGED FROM -12 TO -9
OFFSET CHANGED FROM -9 TO -6
OFFSET CHANGED FROM -6 TO -6
OFFSET CHANGED FROM -6 TO -6
OFFSET CHANGED FROM -6 TO -6
OFFSET CHANGED FROM -6 TO -6
OFFSET CHANGED FROM -6 TO -9
OFFSET CHANGED FROM -9 TO -6
OFFSET CHANGED FROM -6 TO -6
OFFSET CHANGED FROM -6 TO -6
OFFSET CHANGED FROM -6 TO -6
OFFSET CHANGED FROM -6 TO -6
OFFSET CHANGED FROM -6 TO -6
OFFSET CHANGED FROM -6 TO -6
OFFSET CHANGED FROM -6 TO -6
OFFSET CHANGED FROM -6 TO -9
OFFSET CHANGED FROM -9 TO -6
OFFSET CHANGED FROM -6 TO -6
OFFSET CHANGED FROM -6 TO -6
OFFSET CHANGED FROM -6 TO -6
OFFSET CHANGED FROM -6 TO -6
OFFSET CHANGED FROM -6 TO -6
OFFSET CHANGED FROM -6 TO -6
OFFSET CHANGED FROM -6 TO -6
OFFSET CHANGED FROM -6 TO -6
OFFSET CHANGED FROM -6 TO -6
OFFSET CHANGED FROM -6 TO -6
OFFSET CHANGED FROM -6 TO -9
[...]
OFFSET CHANGED FROM -9 TO -6
OFFSET CHANGED FROM -6 TO -6
OFFSET CHANGED FROM -6 TO -6
OFFSET CHANGED FROM -6 TO -6
OFFSET CHANGED FROM -6 TO -6
OFFSET CHANGED FROM -6 TO -6
OFFSET CHANGED FROM -6 TO -6
OFFSET CHANGED FROM -6 TO -6
OFFSET CHANGED FROM -6 TO -6
OFFSET CHANGED FROM -6 TO -6
OFFSET CHANGED FROM -6 TO -6
OFFSET CHANGED FROM -6 TO -6
OFFSET CHANGED FROM -6 TO -6
OFFSET CHANGED FROM -6 TO -6
OFFSET CHANGED FROM -6 TO -6
OFFSET CHANGED FROM -6 TO -6
OFFSET CHANGED FROM -6 TO -6
OFFSET CHANGED FROM -6 TO -6
OFFSET CHANGED FROM -6 TO -6
OFFSET CHANGED FROM -6 TO -6
OFFSET CHANGED FROM -6 TO -6
OFFSET CHANGED FROM -6 TO -6
OFFSET CHANGED FROM -6 TO -6
OFFSET CHANGED FROM -6 TO -6
OFFSET CHANGED FROM -6 TO -6
OFFSET CHANGED FROM -6 TO -6
OFFSET CHANGED FROM -6 TO -6
OFFSET CHANGED FROM -6 TO -6
OFFSET CHANGED FROM -6 TO -6
OFFSET CHANGED FROM -6 TO -9
OFFSET CHANGED FROM -9 TO -9
OFFSET CHANGED FROM -9 TO -6
OFFSET CHANGED FROM -6 TO -6
OFFSET CHANGED FROM -6 TO -6
OFFSET CHANGED FROM -6 TO -6
OFFSET CHANGED FROM -6 TO -6
OFFSET CHANGED FROM -6 TO -6
OFFSET CHANGED FROM -6 TO -6
OFFSET CHANGED FROM -6 TO -6
OFFSET CHANGED FROM -6 TO -6
OFFSET CHANGED FROM -6 TO -9
OFFSET CHANGED FROM -9 TO -6
OFFSET CHANGED FROM -6 TO -6
OFFSET CHANGED FROM -6 TO -6
OFFSET CHANGED FROM -6 TO -6
OFFSET CHANGED FROM -6 TO -6
OFFSET CHANGED FROM -6 TO -6
OFFSET CHANGED FROM -6 TO -6
OFFSET CHANGED FROM -6 TO -6
OFFSET CHANGED FROM -6 TO -6
OFFSET CHANGED FROM -6 TO -6
OFFSET CHANGED FROM -6 TO -9
OFFSET CHANGED FROM -9 TO -6
OFFSET CHANGED FROM -6 TO -9
OFFSET CHANGED FROM -9 TO -6
OFFSET CHANGED FROM -6 TO -6
OFFSET CHANGED FROM -6 TO -6
OFFSET CHANGED FROM -6 TO -9
OFFSET CHANGED FROM -9 TO -9
OFFSET CHANGED FROM -9 TO -6
OFFSET CHANGED FROM -6 TO -6
OFFSET CHANGED FROM -6 TO -6
OFFSET CHANGED FROM -6 TO -6
OFFSET CHANGED FROM -6 TO -6
OFFSET CHANGED FROM -6 TO -6
OFFSET CHANGED FROM -6 TO -9
OFFSET CHANGED FROM -9 TO -6
OFFSET CHANGED FROM -6 TO -6
OFFSET CHANGED FROM -6 TO -6
OFFSET CHANGED FROM -6 TO -9
OFFSET CHANGED FROM -9 TO -6
OFFSET CHANGED FROM -6 TO -6
OFFSET CHANGED FROM -6 TO -6
OFFSET CHANGED FROM -6 TO -6
OFFSET CHANGED FROM -6 TO -6
OFFSET CHANGED FROM -6 TO -6
OFFSET CHANGED FROM -6 TO -6
OFFSET CHANGED FROM -6 TO -6
OFFSET CHANGED FROM -6 TO -6
OFFSET CHANGED FROM -6 TO -6
OFFSET CHANGED FROM -6 TO -6
OFFSET CHANGED FROM -6 TO -6
OFFSET CHANGED FROM -6 TO -6
OFFSET CHANGED FROM -6 TO -6
OFFSET CHANGED FROM -6 TO -6
OFFSET CHANGED FROM -6 TO -6
OFFSET CHANGED FROM -6 TO -6
OFFSET CHANGED FROM -6 TO -6
OFFSET CHANGED FROM -6 TO -6
OFFSET CHANGED FROM -6 TO -9
OFFSET CHANGED FROM -9 TO -6
OFFSET CHANGED FROM -6 TO -6
OFFSET CHANGED FROM -6 TO -6
OFFSET CHANGED FROM -6 TO -6
OFFSET CHANGED FROM -6 TO -6
OFFSET CHANGED FROM -6 TO -6
OFFSET CHANGED FROM -6 TO -6
OFFSET CHANGED FROM -6 TO -6
OFFSET CHANGED FROM -6 TO -6
OFFSET CHANGED FROM -6 TO -6
OFFSET CHANGED FROM -6 TO -9
OFFSET CHANGED FROM -9 TO -9
OFFSET CHANGED FROM -9 TO -6
OFFSET CHANGED FROM -6 TO -6
OFFSET CHANGED FROM -6 TO -6
OFFSET CHANGED FROM -6 TO -6
OFFSET CHANGED FROM -6 TO -6
OFFSET CHANGED FROM -6 TO -6
OFFSET CHANGED FROM -6 TO -6
OFFSET CHANGED FROM -6 TO -6
OFFSET CHANGED FROM -6 TO -6
OFFSET CHANGED FROM -6 TO -6
OFFSET CHANGED FROM -6 TO -6
OFFSET CHANGED FROM -6 TO -6
OFFSET CHANGED FROM -6 TO -6
OFFSET CHANGED FROM -6 TO -6
OFFSET CHANGED FROM -6 TO -6
OFFSET CHANGED FROM -6 TO -6
OFFSET CHANGED FROM -6 TO -6
OFFSET CHANGED FROM -6 TO -6
OFFSET CHANGED FROM -6 TO -6
OFFSET CHANGED FROM -6 TO -6
OFFSET CHANGED FROM -6 TO -6
OFFSET CHANGED FROM -6 TO -6
OFFSET CHANGED FROM -6 TO -6
OFFSET CHANGED FROM -6 TO -6
OFFSET CHANGED FROM -6 TO -9
OFFSET CHANGED FROM -9 TO -3
OFFSET CHANGED FROM -3 TO -3
OFFSET CHANGED FROM -3 TO -6
OFFSET CHANGED FROM -6 TO -6
OFFSET CHANGED FROM -6 TO -6
OFFSET CHANGED FROM -6 TO -6
OFFSET CHANGED FROM -6 TO -6
OFFSET CHANGED FROM -6 TO -6
OFFSET CHANGED FROM -6 TO -6
OFFSET CHANGED FROM -6 TO -6
OFFSET CHANGED FROM -6 TO -6
OFFSET CHANGED FROM -6 TO -9
OFFSET CHANGED FROM -9 TO -6
OFFSET CHANGED FROM -6 TO -6
OFFSET CHANGED FROM -6 TO -6
OFFSET CHANGED FROM -6 TO -6
OFFSET CHANGED FROM -6 TO -6
OFFSET CHANGED FROM -6 TO -6
OFFSET CHANGED FROM -6 TO -6
OFFSET CHANGED FROM -6 TO -6
OFFSET CHANGED FROM -6 TO -9
OFFSET CHANGED FROM -9 TO -6
OFFSET CHANGED FROM -6 TO -6
OFFSET CHANGED FROM -6 TO -6
OFFSET CHANGED FROM -6 TO -6
OFFSET CHANGED FROM -6 TO -6
OFFSET CHANGED FROM -6 TO -6
OFFSET CHANGED FROM -6 TO -9
OFFSET CHANGED FROM -9 TO -6
OFFSET CHANGED FROM -6 TO -9
OFFSET CHANGED FROM -9 TO -9
OFFSET CHANGED FROM -9 TO -6
OFFSET CHANGED FROM -6 TO -9
OFFSET CHANGED FROM -9 TO -6
OFFSET CHANGED FROM -6 TO -6
OFFSET CHANGED FROM -6 TO -3
OFFSET CHANGED FROM -3 TO -3
OFFSET CHANGED FROM -3 TO -3
OFFSET CHANGED FROM -3 TO -3
Heartbeat CPU 0 instructions: 280000000 cycles: 540059181 heartbeat IPC: 0.329007 cumulative IPC: 0.442975 (Simulation time: 0 hr 14 min 11 sec) 
OFFSET CHANGED FROM -3 TO -3
OFFSET CHANGED FROM -3 TO -6
OFFSET CHANGED FROM -6 TO -3
OFFSET CHANGED FROM -3 TO -6
OFFSET CHANGED FROM -6 TO -3
OFFSET CHANGED FROM -3 TO -3
OFFSET CHANGED FROM -3 TO -3
OFFSET CHANGED FROM -3 TO -3
OFFSET CHANGED FROM -3 TO -6
OFFSET CHANGED FROM -6 TO -6
OFFSET CHANGED FROM -6 TO -6
OFFSET CHANGED FROM -6 TO -3
OFFSET CHANGED FROM -3 TO -6
OFFSET CHANGED FROM -6 TO -6
OFFSET CHANGED FROM -6 TO -12
OFFSET CHANGED FROM -12 TO -9
OFFSET CHANGED FROM -9 TO -6
OFFSET CHANGED FROM -6 TO -6
OFFSET CHANGED FROM -6 TO -6
OFFSET CHANGED FROM -6 TO -6
OFFSET CHANGED FROM -6 TO -6
OFFSET CHANGED FROM -6 TO -6
OFFSET CHANGED FROM -6 TO -6
OFFSET CHANGED FROM -6 TO -6
OFFSET CHANGED FROM -6 TO -9
OFFSET CHANGED FROM -9 TO -9
OFFSET CHANGED FROM -9 TO -6
OFFSET CHANGED FROM -6 TO -9
OFFSET CHANGED FROM -9 TO -9
OFFSET CHANGED FROM -9 TO -6
OFFSET CHANGED FROM -6 TO -6
OFFSET CHANGED FROM -6 TO -9
OFFSET CHANGED FROM -9 TO -6
OFFSET CHANGED FROM -6 TO -6
OFFSET CHANGED FROM -6 TO -6
OFFSET CHANGED FROM -6 TO -6
OFFSET CHANGED FROM -6 TO -6
OFFSET CHANGED FROM -6 TO -6
OFFSET CHANGED FROM -6 TO -9
OFFSET CHANGED FROM -9 TO -9
OFFSET CHANGED FROM -9 TO -6
OFFSET CHANGED FROM -6 TO -6
OFFSET CHANGED FROM -6 TO -3
OFFSET CHANGED FROM -3 TO -3
OFFSET CHANGED FROM -3 TO -3
OFFSET CHANGED FROM -3 TO -3
OFFSET CHANGED FROM -3 TO -3
OFFSET CHANGED FROM -3 TO -3
OFFSET CHANGED FROM -3 TO -3
OFFSET CHANGED FROM -3 TO -3
OFFSET CHANGED FROM -3 TO -6
OFFSET CHANGED FROM -6 TO -6
OFFSET CHANGED FROM -6 TO -3
OFFSET CHANGED FROM -3 TO -3
OFFSET CHANGED FROM -3 TO -3
OFFSET CHANGED FROM -3 TO -3
OFFSET CHANGED FROM -3 TO -3
OFFSET CHANGED FROM -3 TO -6
OFFSET CHANGED FROM -6 TO -6
OFFSET CHANGED FROM -6 TO -6
OFFSET CHANGED FROM -6 TO -3
OFFSET CHANGED FROM -3 TO -6
OFFSET CHANGED FROM -6 TO -6
OFFSET CHANGED FROM -6 TO -6
OFFSET CHANGED FROM -6 TO -6
OFFSET CHANGED FROM -6 TO -6
OFFSET CHANGED FROM -6 TO -6
OFFSET CHANGED FROM -6 TO -6
OFFSET CHANGED FROM -6 TO -9
OFFSET CHANGED FROM -9 TO -6
OFFSET CHANGED FROM -6 TO -6
OFFSET CHANGED FROM -6 TO -6
OFFSET CHANGED FROM -6 TO -6
OFFSET CHANGED FROM -6 TO -6
OFFSET CHANGED FROM -6 TO -12
OFFSET CHANGED FROM -12 TO -9
OFFSET CHANGED FROM -9 TO -6
OFFSET CHANGED FROM -6 TO -6
OFFSET CHANGED FROM -6 TO -6
OFFSET CHANGED FROM -6 TO -6
OFFSET CHANGED FROM -6 TO -6
OFFSET CHANGED FROM -6 TO -6
OFFSET CHANGED FROM -6 TO -6
OFFSET CHANGED FROM -6 TO -6
OFFSET CHANGED FROM -6 TO -6
OFFSET CHANGED FROM -6 TO -6
OFFSET CHANGED FROM -6 TO -6
OFFSET CHANGED FROM -6 TO -6
OFFSET CHANGED FROM -6 TO -6
OFFSET CHANGED FROM -6 TO -6
OFFSET CHANGED FROM -6 TO -6
OFFSET CHANGED FROM -6 TO -3
OFFSET CHANGED FROM -3 TO -6
OFFSET CHANGED FROM -6 TO -6
OFFSET CHANGED FROM -6 TO -3
OFFSET CHANGED FROM -3 TO -3
OFFSET CHANGED FROM -3 TO -3
Heartbeat CPU 0 instructions: 290000000 cycles: 552630774 heartbeat IPC: 0.795444 cumulative IPC: 0.451307 (Simulation time: 0 hr 14 min 36 sec) 
OFFSET CHANGED FROM -3 TO -6
OFFSET CHANGED FROM -6 TO -6
OFFSET CHANGED FROM -6 TO -3
OFFSET CHANGED FROM -3 TO -3
OFFSET CHANGED FROM -3 TO -2
OFFSET CHANGED FROM -2 TO -6
OFFSET CHANGED FROM -6 TO -3
OFFSET CHANGED FROM -3 TO -3
OFFSET CHANGED FROM -3 TO -3
OFFSET CHANGED FROM -3 TO -3
OFFSET CHANGED FROM -3 TO -9
OFFSET CHANGED FROM -9 TO -6
OFFSET CHANGED FROM -6 TO -6
OFFSET CHANGED FROM -6 TO -3
OFFSET CHANGED FROM -3 TO -3
OFFSET CHANGED FROM -3 TO -6
OFFSET CHANGED FROM -6 TO -6
OFFSET CHANGED FROM -6 TO -6
OFFSET CHANGED FROM -6 TO -6
OFFSET CHANGED FROM -6 TO -6
OFFSET CHANGED FROM -6 TO -6
OFFSET CHANGED FROM -6 TO -6
OFFSET CHANGED FROM -6 TO -6
OFFSET CHANGED FROM -6 TO -6
OFFSET CHANGED FROM -6 TO -6
OFFSET CHANGED FROM -6 TO -6
OFFSET CHANGED FROM -6 TO -6
OFFSET CHANGED FROM -6 TO -6
OFFSET CHANGED FROM -6 TO -6
OFFSET CHANGED FROM -6 TO -6
OFFSET CHANGED FROM -6 TO -6
OFFSET CHANGED FROM -6 TO -6
OFFSET CHANGED FROM -6 TO -6
OFFSET CHANGED FROM -6 TO -6
OFFSET CHANGED FROM -6 TO -6
OFFSET CHANGED FROM -6 TO -9
OFFSET CHANGED FROM -9 TO -9
OFFSET CHANGED FROM -9 TO -6
OFFSET CHANGED FROM -6 TO -6
OFFSET CHANGED FROM -6 TO -6
OFFSET CHANGED FROM -6 TO -6
OFFSET CHANGED FROM -6 TO -6
OFFSET CHANGED FROM -6 TO -6
OFFSET CHANGED FROM -6 TO -6
OFFSET CHANGED FROM -6 TO -6
OFFSET CHANGED FROM -6 TO -6
OFFSET CHANGED FROM -6 TO -6
OFFSET CHANGED FROM -6 TO -6
OFFSET CHANGED FROM -6 TO -6
OFFSET CHANGED FROM -6 TO -6
OFFSET CHANGED FROM -6 TO -6
OFFSET CHANGED FROM -6 TO -6
OFFSET CHANGED FROM -6 TO -6
OFFSET CHANGED FROM -6 TO -6
OFFSET CHANGED FROM -6 TO -6
OFFSET CHANGED FROM -6 TO -6
OFFSET CHANGED FROM -6 TO -9
OFFSET CHANGED FROM -9 TO -6
OFFSET CHANGED FROM -6 TO -6
OFFSET CHANGED FROM -6 TO -6
OFFSET CHANGED FROM -6 TO -6
OFFSET CHANGED FROM -6 TO -6
OFFSET CHANGED FROM -6 TO -6
OFFSET CHANGED FROM -6 TO -6
OFFSET CHANGED FROM -6 TO -6
OFFSET CHANGED FROM -6 TO -6
OFFSET CHANGED FROM -6 TO -9
OFFSET CHANGED FROM -9 TO -6
OFFSET CHANGED FROM -6 TO -6
OFFSET CHANGED FROM -6 TO -6
OFFSET CHANGED FROM -6 TO -6
OFFSET CHANGED FROM -6 TO -6
OFFSET CHANGED FROM -6 TO -6
OFFSET CHANGED FROM -6 TO -6
OFFSET CHANGED FROM -6 TO -6
OFFSET CHANGED FROM -6 TO -6
OFFSET CHANGED FROM -6 TO -6
OFFSET CHANGED FROM -6 TO -9
OFFSET CHANGED FROM -9 TO -6
OFFSET CHANGED FROM -6 TO -6
OFFSET CHANGED FROM -6 TO -6
OFFSET CHANGED FROM -6 TO -6
OFFSET CHANGED FROM -6 TO -6
OFFSET CHANGED FROM -6 TO -12
OFFSET CHANGED FROM -12 TO -6
OFFSET CHANGED FROM -6 TO -6
OFFSET CHANGED FROM -6 TO -9
OFFSET CHANGED FROM -9 TO -6
OFFSET CHANGED FROM -6 TO -6
OFFSET CHANGED FROM -6 TO -6
OFFSET CHANGED FROM -6 TO -6
OFFSET CHANGED FROM -6 TO -6
OFFSET CHANGED FROM -6 TO -6
OFFSET CHANGED FROM -6 TO -6
OFFSET CHANGED FROM -6 TO -6
OFFSET CHANGED FROM -6 TO -6
OFFSET CHANGED FROM -6 TO -6
OFFSET CHANGED FROM -6 TO -6
OFFSET CHANGED FROM -6 TO -6
OFFSET CHANGED FROM -6 TO -6
OFFSET CHANGED FROM -6 TO -6
OFFSET CHANGED FROM -6 TO -6
OFFSET CHANGED FROM -6 TO -6
OFFSET CHANGED FROM -6 TO -6
OFFSET CHANGED FROM -6 TO -6
OFFSET CHANGED FROM -6 TO -6
OFFSET CHANGED FROM -6 TO -6
OFFSET CHANGED FROM -6 TO -6
OFFSET CHANGED FROM -6 TO -6
OFFSET CHANGED FROM -6 TO -9
OFFSET CHANGED FROM -9 TO -6
OFFSET CHANGED FROM -6 TO -6
OFFSET CHANGED FROM -6 TO -6
OFFSET CHANGED FROM -6 TO -6
OFFSET CHANGED FROM -6 TO -6
OFFSET CHANGED FROM -6 TO -6
OFFSET CHANGED FROM -6 TO -6
OFFSET CHANGED FROM -6 TO -6
OFFSET CHANGED FROM -6 TO -6
OFFSET CHANGED FROM -6 TO -6
OFFSET CHANGED FROM -6 TO -9
OFFSET CHANGED FROM -9 TO -9
OFFSET CHANGED FROM -9 TO -6
OFFSET CHANGED FROM -6 TO -6
OFFSET CHANGED FROM -6 TO -6
OFFSET CHANGED FROM -6 TO -6
OFFSET CHANGED FROM -6 TO -9
OFFSET CHANGED FROM -9 TO -6
OFFSET CHANGED FROM -6 TO -6
OFFSET CHANGED FROM -6 TO -9
OFFSET CHANGED FROM -9 TO -9
OFFSET CHANGED FROM -9 TO -6
OFFSET CHANGED FROM -6 TO -6
OFFSET CHANGED FROM -6 TO -6
OFFSET CHANGED FROM -6 TO -6
OFFSET CHANGED FROM -6 TO -9
OFFSET CHANGED FROM -9 TO -6
OFFSET CHANGED FROM -6 TO -6
OFFSET CHANGED FROM -6 TO -6
OFFSET CHANGED FROM -6 TO -6
OFFSET CHANGED FROM -6 TO -6
OFFSET CHANGED FROM -6 TO -6
OFFSET CHANGED FROM -6 TO -6
OFFSET CHANGED FROM -6 TO -6
OFFSET CHANGED FROM -6 TO -6
OFFSET CHANGED FROM -6 TO -6
OFFSET CHANGED FROM -6 TO -9
OFFSET CHANGED FROM -9 TO -6
OFFSET CHANGED FROM -6 TO -6
OFFSET CHANGED FROM -6 TO -9
OFFSET CHANGED FROM -9 TO -6
OFFSET CHANGED FROM -6 TO -6
OFFSET CHANGED FROM -6 TO -9
OFFSET CHANGED FROM -9 TO -9
OFFSET CHANGED FROM -9 TO -9
OFFSET CHANGED FROM -9 TO -6
OFFSET CHANGED FROM -6 TO -12
OFFSET CHANGED FROM -12 TO -9
OFFSET CHANGED FROM -9 TO -6
OFFSET CHANGED FROM -6 TO -6
OFFSET CHANGED FROM -6 TO -6
OFFSET CHANGED FROM -6 TO -6
OFFSET CHANGED FROM -6 TO -6
OFFSET CHANGED FROM -6 TO -6
OFFSET CHANGED FROM -6 TO -6
OFFSET CHANGED FROM -6 TO -6
OFFSET CHANGED FROM -6 TO -6
OFFSET CHANGED FROM -6 TO -6
OFFSET CHANGED FROM -6 TO -6
OFFSET CHANGED FROM -6 TO -9
OFFSET CHANGED FROM -9 TO -6
OFFSET CHANGED FROM -6 TO -6
OFFSET CHANGED FROM -6 TO -6
OFFSET CHANGED FROM -6 TO -6
OFFSET CHANGED FROM -6 TO -6
OFFSET CHANGED FROM -6 TO -9
OFFSET CHANGED FROM -9 TO -9
OFFSET CHANGED FROM -9 TO -6
OFFSET CHANGED FROM -6 TO -6
OFFSET CHANGED FROM -6 TO -6
OFFSET CHANGED FROM -6 TO -6
OFFSET CHANGED FROM -6 TO -6
OFFSET CHANGED FROM -6 TO -6
OFFSET CHANGED FROM -6 TO -6
OFFSET CHANGED FROM -6 TO -6
OFFSET CHANGED FROM -6 TO -6
OFFSET CHANGED FROM -6 TO -9
OFFSET CHANGED FROM -9 TO -6
OFFSET CHANGED FROM -6 TO -6
OFFSET CHANGED FROM -6 TO -6
OFFSET CHANGED FROM -6 TO -6
OFFSET CHANGED FROM -6 TO -6
OFFSET CHANGED FROM -6 TO -12
OFFSET CHANGED FROM -12 TO -6
OFFSET CHANGED FROM -6 TO -6
OFFSET CHANGED FROM -6 TO -6
OFFSET CHANGED FROM -6 TO -6
OFFSET CHANGED FROM -6 TO -6
OFFSET CHANGED FROM -6 TO -6
OFFSET CHANGED FROM -6 TO -12
OFFSET CHANGED FROM -12 TO -6
OFFSET CHANGED FROM -6 TO -6
OFFSET CHANGED FROM -6 TO -6
OFFSET CHANGED FROM -6 TO -6
OFFSET CHANGED FROM -6 TO -6
OFFSET CHANGED FROM -6 TO -6
OFFSET CHANGED FROM -6 TO -6
OFFSET CHANGED FROM -6 TO -6
OFFSET CHANGED FROM -6 TO -9
OFFSET CHANGED FROM -9 TO -12
OFFSET CHANGED FROM -12 TO -6
OFFSET CHANGED FROM -6 TO -6
OFFSET CHANGED FROM -6 TO -6
OFFSET CHANGED FROM -6 TO -9
OFFSET CHANGED FROM -9 TO -9
OFFSET CHANGED FROM -9 TO -6
OFFSET CHANGED FROM -6 TO -6
OFFSET CHANGED FROM -6 TO -6
OFFSET CHANGED FROM -6 TO -6
OFFSET CHANGED FROM -6 TO -6
OFFSET CHANGED FROM -6 TO -6
OFFSET CHANGED FROM -6 TO -6
OFFSET CHANGED FROM -6 TO -6
OFFSET CHANGED FROM -6 TO -6
OFFSET CHANGED FROM -6 TO -6
OFFSET CHANGED FROM -6 TO -6
OFFSET CHANGED FROM -6 TO -6
OFFSET CHANGED FROM -6 TO -6
OFFSET CHANGED FROM -6 TO -6
OFFSET CHANGED FROM -6 TO -6
OFFSET CHANGED FROM -6 TO -6
OFFSET CHANGED FROM -6 TO -6
OFFSET CHANGED FROM -6 TO -6
OFFSET CHANGED FROM -6 TO -6
OFFSET CHANGED FROM -6 TO -9
OFFSET CHANGED FROM -9 TO -6
OFFSET CHANGED FROM -6 TO -6
OFFSET CHANGED FROM -6 TO -6
OFFSET CHANGED FROM -6 TO -6
OFFSET CHANGED FROM -6 TO -3
OFFSET CHANGED FROM -3 TO -6
OFFSET CHANGED FROM -6 TO -6
OFFSET CHANGED FROM -6 TO -3
OFFSET CHANGED FROM -3 TO -3
OFFSET CHANGED FROM -3 TO -3
OFFSET CHANGED FROM -3 TO -3
OFFSET CHANGED FROM -3 TO -3
OFFSET CHANGED FROM -3 TO -6
OFFSET CHANGED FROM -6 TO -6
OFFSET CHANGED FROM -6 TO -3
OFFSET CHANGED FROM -3 TO -6
OFFSET CHANGED FROM -6 TO -6
OFFSET CHANGED FROM -6 TO -6
OFFSET CHANGED FROM -6 TO -6
OFFSET CHANGED FROM -6 TO -9
OFFSET CHANGED FROM -9 TO -9
OFFSET CHANGED FROM -9 TO -6
OFFSET CHANGED FROM -6 TO -6
OFFSET CHANGED FROM -6 TO -6
OFFSET CHANGED FROM -6 TO -6
OFFSET CHANGED FROM -6 TO -6
OFFSET CHANGED FROM -6 TO -6
OFFSET CHANGED FROM -6 TO -6
OFFSET CHANGED FROM -6 TO -6
OFFSET CHANGED FROM -6 TO -6
OFFSET CHANGED FROM -6 TO -6
OFFSET CHANGED FROM -6 TO -6
OFFSET CHANGED FROM -6 TO -6
OFFSET CHANGED FROM -6 TO -6
OFFSET CHANGED FROM -6 TO -6
OFFSET CHANGED FROM -6 TO -6
OFFSET CHANGED FROM -6 TO -6
OFFSET CHANGED FROM -6 TO -6
OFFSET CHANGED FROM -6 TO -9
OFFSET CHANGED FROM -9 TO -6
OFFSET CHANGED FROM -6 TO -6
OFFSET CHANGED FROM -6 TO -6
OFFSET CHANGED FROM -6 TO -12
OFFSET CHANGED FROM -12 TO -6
OFFSET CHANGED FROM -6 TO -6
OFFSET CHANGED FROM -6 TO -9
OFFSET CHANGED FROM -9 TO -9
OFFSET CHANGED FROM -9 TO -6
OFFSET CHANGED FROM -6 TO -6
OFFSET CHANGED FROM -6 TO -6
OFFSET CHANGED FROM -6 TO -6
OFFSET CHANGED FROM -6 TO -6
OFFSET CHANGED FROM -6 TO -6
OFFSET CHANGED FROM -6 TO -9
OFFSET CHANGED FROM -9 TO -6
OFFSET CHANGED FROM -6 TO -6
OFFSET CHANGED FROM -6 TO -6
OFFSET CHANGED FROM -6 TO -6
OFFSET CHANGED FROM -6 TO -6
OFFSET CHANGED FROM -6 TO -6
OFFSET CHANGED FROM -6 TO -6
OFFSET CHANGED FROM -6 TO -6
OFFSET CHANGED FROM -6 TO -6
OFFSET CHANGED FROM -6 TO -6
OFFSET CHANGED FROM -6 TO -6
OFFSET CHANGED FROM -6 TO -6
OFFSET CHANGED FROM -6 TO -9
OFFSET CHANGED FROM -9 TO -6
OFFSET CHANGED FROM -6 TO -9
OFFSET CHANGED FROM -9 TO -9
OFFSET CHANGED FROM -9 TO -6
OFFSET CHANGED FROM -6 TO -9
OFFSET CHANGED FROM -9 TO -6
OFFSET CHANGED FROM -6 TO -6
OFFSET CHANGED FROM -6 TO -6
OFFSET CHANGED FROM -6 TO -6
OFFSET CHANGED FROM -6 TO -6
Heartbeat CPU 0 instructions: 300000001 cycles: 574740801 heartbeat IPC: 0.452284 cumulative IPC: 0.451346 (Simulation time: 0 hr 15 min 7 sec) 
Finished CPU 0 instructions: 250000002 cycles: 553898658 cumulative IPC: 0.451346 (Simulation time: 0 hr 15 min 7 sec) 

ChampSim completed all CPUs

Region of Interest Statistics

CPU 0 cumulative IPC: 0.451346 instructions: 250000002 cycles: 553898658
L1D TOTAL     ACCESS:   90505796  HIT:   76005403  MISS:   14500393
L1D LOAD      ACCESS:   46018045  HIT:   31520985  MISS:   14497060
L1D RFO       ACCESS:   44487751  HIT:   44484418  MISS:       3333
L1D PREFETCH  ACCESS:          0  HIT:          0  MISS:          0
L1D WRITEBACK ACCESS:          0  HIT:          0  MISS:          0
L1D PREFETCH  REQUESTED:          0  ISSUED:          0  USEFUL:          0  USELESS:          0
L1D AVERAGE MISS LATENCY: 47.3444 cycles
L1I TOTAL     ACCESS:   52592413  HIT:   52592413  MISS:          0
L1I LOAD      ACCESS:   52592413  HIT:   52592413  MISS:          0
L1I RFO       ACCESS:          0  HIT:          0  MISS:          0
L1I PREFETCH  ACCESS:          0  HIT:          0  MISS:          0
L1I WRITEBACK ACCESS:          0  HIT:          0  MISS:          0
L1I PREFETCH  REQUESTED:          0  ISSUED:          0  USEFUL:          0  USELESS:          0
L1I AVERAGE MISS LATENCY: -nan cycles
L2C TOTAL     ACCESS:   25902781  HIT:   10853717  MISS:   15049064
L2C LOAD      ACCESS:   14496948  HIT:    9897216  MISS:    4599732
L2C RFO       ACCESS:       3333  HIT:       2513  MISS:        820
L2C PREFETCH  ACCESS:   10901172  HIT:     455015  MISS:   10446157
L2C WRITEBACK ACCESS:     501328  HIT:     498973  MISS:       2355
L2C PREFETCH  REQUESTED:   13084282  ISSUED:   13084282  USEFUL:    9808015  USELESS:     638220
L2C AVERAGE MISS LATENCY: 123.992 cycles
LLC TOTAL     ACCESS:   15478966  HIT:     457216  MISS:   15021750
LLC LOAD      ACCESS:    2419320  HIT:      12406  MISS:    2406914
LLC RFO       ACCESS:        791  HIT:        237  MISS:        554
LLC PREFETCH  ACCESS:   12626664  HIT:      15386  MISS:   12611278
LLC WRITEBACK ACCESS:     432191  HIT:     429187  MISS:       3004
LLC PREFETCH  REQUESTED:          0  ISSUED:          0  USEFUL:        398  USELESS:   12612514
LLC AVERAGE MISS LATENCY: 105.364 cycles
Major fault: 0 Minor fault: 24751
CPU 0 L1I next line prefetcher final stats
CPU 0 L2C best offset prefetcher final stats

DRAM Statistics
 CHANNEL 0
 RQ ROW_BUFFER_HIT:   11857041  ROW_BUFFER_MISS:    3161671
 DBUS_CONGESTED:    5513866
 WQ ROW_BUFFER_HIT:     136981  ROW_BUFFER_MISS:     285668  FULL:          0

 AVG_CONGESTED_CYCLE: 6

CPU 0 Branch Prediction Accuracy: 98.0342% MPKI: 2.3226 Average ROB Occupancy at Mispredict: 48.3951

Branch types
NOT_BRANCH: 220461838 88.1847%
BRANCH_DIRECT_JUMP: 466020 0.186408%
BRANCH_INDIRECT: 0 0%
BRANCH_CONDITIONAL: 28606418 11.4426%
BRANCH_DIRECT_CALL: 232839 0.0931356%
BRANCH_INDIRECT_CALL: 0 0%
BRANCH_RETURN: 232839 0.0931356%
BRANCH_OTHER: 0 0%

