
*** ChampSim Multicore Out-of-Order Simulator ***

Warmup Instructions: 50000000
Simulation Instructions: 250000000
Number of CPUs: 1
LLC sets: 2048
LLC ways: 16
Off-chip DRAM Size: 4096 MB Channels: 1 Width: 64-bit Data Rate: 3200 MT/s

CPU 0 runs /home/wezelis2/ECE511_Project/ChampSim/dpc3_traces/433.milc-127B.champsimtrace.xz
CPU 0 Bimodal branch predictor
CPU 0 L1I next line prefetcher
INIT BEST RECENT REQUEST TABLE MODULE
INIT DELAY QUEUE MODULE
INIT PREFETCH THROTTLE MODULE
INIT OFFSET SCORE MODULE
INIT BEST OFFSET PREFETCHER
OFFSET CHANGED FROM 1 TO 1
OFFSET CHANGED FROM 1 TO 1
OFFSET CHANGED FROM 1 TO 1
OFFSET CHANGED FROM 1 TO 1
OFFSET CHANGED FROM 1 TO 1
OFFSET CHANGED FROM 1 TO 1
OFFSET CHANGED FROM 1 TO 1
OFFSET CHANGED FROM 1 TO 1
OFFSET CHANGED FROM 1 TO 1
OFFSET CHANGED FROM 1 TO 1
OFFSET CHANGED FROM 1 TO 1
OFFSET CHANGED FROM 1 TO 1
OFFSET CHANGED FROM 1 TO 1
OFFSET CHANGED FROM 1 TO 1
OFFSET CHANGED FROM 1 TO 1
OFFSET CHANGED FROM 1 TO 1
OFFSET CHANGED FROM 1 TO 1
OFFSET CHANGED FROM 1 TO 1
OFFSET CHANGED FROM 1 TO 1
OFFSET CHANGED FROM 1 TO 1
OFFSET CHANGED FROM 1 TO 1
OFFSET CHANGED FROM 1 TO 1
OFFSET CHANGED FROM 1 TO 1
OFFSET CHANGED FROM 1 TO 1
OFFSET CHANGED FROM 1 TO 1
OFFSET CHANGED FROM 1 TO 1
OFFSET CHANGED FROM 1 TO 1
OFFSET CHANGED FROM 1 TO 1
OFFSET CHANGED FROM 1 TO 1
OFFSET CHANGED FROM 1 TO 1
OFFSET CHANGED FROM 1 TO 1
OFFSET CHANGED FROM 1 TO 1
OFFSET CHANGED FROM 1 TO 1
OFFSET CHANGED FROM 1 TO 1
OFFSET CHANGED FROM 1 TO 1
OFFSET CHANGED FROM 1 TO 1
OFFSET CHANGED FROM 1 TO 1
OFFSET CHANGED FROM 1 TO 1
OFFSET CHANGED FROM 1 TO 1
OFFSET CHANGED FROM 1 TO 1
OFFSET CHANGED FROM 1 TO 1
OFFSET CHANGED FROM 1 TO 1
OFFSET CHANGED FROM 1 TO 1
OFFSET CHANGED FROM 1 TO 1
OFFSET CHANGED FROM 1 TO 1
OFFSET CHANGED FROM 1 TO 1
OFFSET CHANGED FROM 1 TO 1
OFFSET CHANGED FROM 1 TO 1
OFFSET CHANGED FROM 1 TO 1
OFFSET CHANGED FROM 1 TO 1
OFFSET CHANGED FROM 1 TO 1
OFFSET CHANGED FROM 1 TO 1
OFFSET CHANGED FROM 1 TO 1
OFFSET CHANGED FROM 1 TO 1
OFFSET CHANGED FROM 1 TO 1
OFFSET CHANGED FROM 1 TO 1
OFFSET CHANGED FROM 1 TO 1
OFFSET CHANGED FROM 1 TO 1
OFFSET CHANGED FROM 1 TO 1
OFFSET CHANGED FROM 1 TO 1
OFFSET CHANGED FROM 1 TO 1
OFFSET CHANGED FROM 1 TO 1
OFFSET CHANGED FROM 1 TO 1
OFFSET CHANGED FROM 1 TO 1
OFFSET CHANGED FROM 1 TO 1
OFFSET CHANGED FROM 1 TO 1
OFFSET CHANGED FROM 1 TO 1
OFFSET CHANGED FROM 1 TO 1
OFFSET CHANGED FROM 1 TO 1
OFFSET CHANGED FROM 1 TO 1
OFFSET CHANGED FROM 1 TO 1
OFFSET CHANGED FROM 1 TO 1
OFFSET CHANGED FROM 1 TO 1
OFFSET CHANGED FROM 1 TO 1
OFFSET CHANGED FROM 1 TO 1
OFFSET CHANGED FROM 1 TO 1
OFFSET CHANGED FROM 1 TO 1
OFFSET CHANGED FROM 1 TO 1
OFFSET CHANGED FROM 1 TO 1
OFFSET CHANGED FROM 1 TO 1
Heartbeat CPU 0 instructions: 10000003 cycles: 3489970 heartbeat IPC: 2.86536 cumulative IPC: 2.86536 (Simulation time: 0 hr 0 min 21 sec) 
OFFSET CHANGED FROM 1 TO 1
OFFSET CHANGED FROM 1 TO 1
OFFSET CHANGED FROM 1 TO 1
OFFSET CHANGED FROM 1 TO 1
OFFSET CHANGED FROM 1 TO 1
OFFSET CHANGED FROM 1 TO 1
OFFSET CHANGED FROM 1 TO 1
OFFSET CHANGED FROM 1 TO 1
OFFSET CHANGED FROM 1 TO 1
OFFSET CHANGED FROM 1 TO 1
OFFSET CHANGED FROM 1 TO 1
OFFSET CHANGED FROM 1 TO 1
OFFSET CHANGED FROM 1 TO 1
OFFSET CHANGED FROM 1 TO 1
OFFSET CHANGED FROM 1 TO 1
OFFSET CHANGED FROM 1 TO 1
OFFSET CHANGED FROM 1 TO 1
OFFSET CHANGED FROM 1 TO 1
OFFSET CHANGED FROM 1 TO 1
OFFSET CHANGED FROM 1 TO 1
OFFSET CHANGED FROM 1 TO 1
OFFSET CHANGED FROM 1 TO 1
OFFSET CHANGED FROM 1 TO 1
OFFSET CHANGED FROM 1 TO 1
OFFSET CHANGED FROM 1 TO 1
OFFSET CHANGED FROM 1 TO 1
OFFSET CHANGED FROM 1 TO 1
OFFSET CHANGED FROM 1 TO 1
OFFSET CHANGED FROM 1 TO 1
OFFSET CHANGED FROM 1 TO 1
OFFSET CHANGED FROM 1 TO 1
OFFSET CHANGED FROM 1 TO 1
OFFSET CHANGED FROM 1 TO 1
OFFSET CHANGED FROM 1 TO 1
OFFSET CHANGED FROM 1 TO 1
OFFSET CHANGED FROM 1 TO 1
OFFSET CHANGED FROM 1 TO 1
OFFSET CHANGED FROM 1 TO 1
OFFSET CHANGED FROM 1 TO 1
OFFSET CHANGED FROM 1 TO 1
OFFSET CHANGED FROM 1 TO 1
OFFSET CHANGED FROM 1 TO 1
OFFSET CHANGED FROM 1 TO 1
OFFSET CHANGED FROM 1 TO 1
OFFSET CHANGED FROM 1 TO 1
OFFSET CHANGED FROM 1 TO 1
OFFSET CHANGED FROM 1 TO 1
OFFSET CHANGED FROM 1 TO 1
OFFSET CHANGED FROM 1 TO 1
OFFSET CHANGED FROM 1 TO 1
OFFSET CHANGED FROM 1 TO 1
OFFSET CHANGED FROM 1 TO 1
OFFSET CHANGED FROM 1 TO 1
OFFSET CHANGED FROM 1 TO 1
OFFSET CHANGED FROM 1 TO 1
OFFSET CHANGED FROM 1 TO 1
OFFSET CHANGED FROM 1 TO 1
OFFSET CHANGED FROM 1 TO 1
OFFSET CHANGED FROM 1 TO 1
OFFSET CHANGED FROM 1 TO 1
OFFSET CHANGED FROM 1 TO 1
OFFSET CHANGED FROM 1 TO 1
OFFSET CHANGED FROM 1 TO 1
OFFSET CHANGED FROM 1 TO 1
OFFSET CHANGED FROM 1 TO 1
OFFSET CHANGED FROM 1 TO 1
OFFSET CHANGED FROM 1 TO 1
OFFSET CHANGED FROM 1 TO 1
OFFSET CHANGED FROM 1 TO 1
OFFSET CHANGED FROM 1 TO 1
OFFSET CHANGED FROM 1 TO 1
OFFSET CHANGED FROM 1 TO 1
OFFSET CHANGED FROM 1 TO 1
OFFSET CHANGED FROM 1 TO 1
OFFSET CHANGED FROM 1 TO 1
OFFSET CHANGED FROM 1 TO 1
Heartbeat CPU 0 instructions: 20000003 cycles: 7007812 heartbeat IPC: 2.84265 cumulative IPC: 2.85396 (Simulation time: 0 hr 0 min 43 sec) 
OFFSET CHANGED FROM 1 TO 2
OFFSET CHANGED FROM 2 TO 3
OFFSET CHANGED FROM 3 TO 3
OFFSET CHANGED FROM 3 TO 3
OFFSET CHANGED FROM 3 TO 2
OFFSET CHANGED FROM 2 TO 1
OFFSET CHANGED FROM 1 TO 1
OFFSET CHANGED FROM 1 TO 1
OFFSET CHANGED FROM 1 TO 1
OFFSET CHANGED FROM 1 TO 1
OFFSET CHANGED FROM 1 TO 1
OFFSET CHANGED FROM 1 TO 1
OFFSET CHANGED FROM 1 TO 1
OFFSET CHANGED FROM 1 TO 1
OFFSET CHANGED FROM 1 TO 1
OFFSET CHANGED FROM 1 TO 1
OFFSET CHANGED FROM 1 TO 1
OFFSET CHANGED FROM 1 TO 1
OFFSET CHANGED FROM 1 TO 2
OFFSET CHANGED FROM 2 TO 1
OFFSET CHANGED FROM 1 TO 1
OFFSET CHANGED FROM 1 TO 1
OFFSET CHANGED FROM 1 TO 1
OFFSET CHANGED FROM 1 TO 2
OFFSET CHANGED FROM 2 TO 1
OFFSET CHANGED FROM 1 TO 2
OFFSET CHANGED FROM 2 TO 1
OFFSET CHANGED FROM 1 TO 1
OFFSET CHANGED FROM 1 TO 1
OFFSET CHANGED FROM 1 TO 1
OFFSET CHANGED FROM 1 TO 1
OFFSET CHANGED FROM 1 TO 1
OFFSET CHANGED FROM 1 TO 1
OFFSET CHANGED FROM 1 TO 1
OFFSET CHANGED FROM 1 TO 1
OFFSET CHANGED FROM 1 TO 1
OFFSET CHANGED FROM 1 TO 1
OFFSET CHANGED FROM 1 TO 1
OFFSET CHANGED FROM 1 TO 1
OFFSET CHANGED FROM 1 TO 1
OFFSET CHANGED FROM 1 TO 1
OFFSET CHANGED FROM 1 TO 1
OFFSET CHANGED FROM 1 TO 1
OFFSET CHANGED FROM 1 TO 1
OFFSET CHANGED FROM 1 TO 1
OFFSET CHANGED FROM 1 TO 2
OFFSET CHANGED FROM 2 TO 2
OFFSET CHANGED FROM 2 TO 1
OFFSET CHANGED FROM 1 TO 1
OFFSET CHANGED FROM 1 TO 1
OFFSET CHANGED FROM 1 TO 1
OFFSET CHANGED FROM 1 TO 1
OFFSET CHANGED FROM 1 TO 1
OFFSET CHANGED FROM 1 TO 1
OFFSET CHANGED FROM 1 TO 2
OFFSET CHANGED FROM 2 TO 1
OFFSET CHANGED FROM 1 TO 1
OFFSET CHANGED FROM 1 TO 1
OFFSET CHANGED FROM 1 TO 1
OFFSET CHANGED FROM 1 TO 1
OFFSET CHANGED FROM 1 TO 1
OFFSET CHANGED FROM 1 TO 1
OFFSET CHANGED FROM 1 TO 1
OFFSET CHANGED FROM 1 TO 1
OFFSET CHANGED FROM 1 TO 1
OFFSET CHANGED FROM 1 TO 1
OFFSET CHANGED FROM 1 TO 1
OFFSET CHANGED FROM 1 TO 1
OFFSET CHANGED FROM 1 TO 1
OFFSET CHANGED FROM 1 TO 1
OFFSET CHANGED FROM 1 TO 1
OFFSET CHANGED FROM 1 TO 2
OFFSET CHANGED FROM 2 TO 1
OFFSET CHANGED FROM 1 TO 1
OFFSET CHANGED FROM 1 TO 1
OFFSET CHANGED FROM 1 TO 1
OFFSET CHANGED FROM 1 TO 1
OFFSET CHANGED FROM 1 TO 1
OFFSET CHANGED FROM 1 TO 2
OFFSET CHANGED FROM 2 TO 1
OFFSET CHANGED FROM 1 TO 1
OFFSET CHANGED FROM 1 TO 2
OFFSET CHANGED FROM 2 TO 1
OFFSET CHANGED FROM 1 TO 1
OFFSET CHANGED FROM 1 TO 1
OFFSET CHANGED FROM 1 TO 2
OFFSET CHANGED FROM 2 TO 1
OFFSET CHANGED FROM 1 TO 1
OFFSET CHANGED FROM 1 TO 1
OFFSET CHANGED FROM 1 TO 1
OFFSET CHANGED FROM 1 TO 1
OFFSET CHANGED FROM 1 TO 1
OFFSET CHANGED FROM 1 TO 1
OFFSET CHANGED FROM 1 TO 1
OFFSET CHANGED FROM 1 TO 1
OFFSET CHANGED FROM 1 TO 2
OFFSET CHANGED FROM 2 TO 1
OFFSET CHANGED FROM 1 TO 1
OFFSET CHANGED FROM 1 TO 1
OFFSET CHANGED FROM 1 TO 2
OFFSET CHANGED FROM 2 TO 1
OFFSET CHANGED FROM 1 TO 1
OFFSET CHANGED FROM 1 TO 1
OFFSET CHANGED FROM 1 TO 1
OFFSET CHANGED FROM 1 TO 1
OFFSET CHANGED FROM 1 TO 1
OFFSET CHANGED FROM 1 TO 1
OFFSET CHANGED FROM 1 TO 1
OFFSET CHANGED FROM 1 TO 1
OFFSET CHANGED FROM 1 TO 1
OFFSET CHANGED FROM 1 TO 1
OFFSET CHANGED FROM 1 TO 1
OFFSET CHANGED FROM 1 TO 1
OFFSET CHANGED FROM 1 TO 1
OFFSET CHANGED FROM 1 TO 1
OFFSET CHANGED FROM 1 TO 1
OFFSET CHANGED FROM 1 TO 1
OFFSET CHANGED FROM 1 TO 1
Heartbeat CPU 0 instructions: 30000001 cycles: 11290859 heartbeat IPC: 2.33479 cumulative IPC: 2.65702 (Simulation time: 0 hr 1 min 10 sec) 
OFFSET CHANGED FROM 1 TO 1
OFFSET CHANGED FROM 1 TO 1
OFFSET CHANGED FROM 1 TO 1
OFFSET CHANGED FROM 1 TO 1
OFFSET CHANGED FROM 1 TO 1
OFFSET CHANGED FROM 1 TO 1
OFFSET CHANGED FROM 1 TO 1
OFFSET CHANGED FROM 1 TO 1
OFFSET CHANGED FROM 1 TO 1
OFFSET CHANGED FROM 1 TO 1
OFFSET CHANGED FROM 1 TO 1
OFFSET CHANGED FROM 1 TO 1
OFFSET CHANGED FROM 1 TO 1
OFFSET CHANGED FROM 1 TO 1
OFFSET CHANGED FROM 1 TO 1
OFFSET CHANGED FROM 1 TO 1
OFFSET CHANGED FROM 1 TO 1
OFFSET CHANGED FROM 1 TO 1
OFFSET CHANGED FROM 1 TO 1
OFFSET CHANGED FROM 1 TO 1
OFFSET CHANGED FROM 1 TO 1
OFFSET CHANGED FROM 1 TO 1
OFFSET CHANGED FROM 1 TO 1
OFFSET CHANGED FROM 1 TO 1
OFFSET CHANGED FROM 1 TO 1
OFFSET CHANGED FROM 1 TO 1
OFFSET CHANGED FROM 1 TO 1
OFFSET CHANGED FROM 1 TO 1
OFFSET CHANGED FROM 1 TO 1
OFFSET CHANGED FROM 1 TO 2
OFFSET CHANGED FROM 2 TO 2
Heartbeat CPU 0 instructions: 40000001 cycles: 15331117 heartbeat IPC: 2.47509 cumulative IPC: 2.60907 (Simulation time: 0 hr 1 min 36 sec) 
OFFSET CHANGED FROM 2 TO 1
OFFSET CHANGED FROM 1 TO 1
OFFSET CHANGED FROM 1 TO 1
OFFSET CHANGED FROM 1 TO 1
OFFSET CHANGED FROM 1 TO 1
OFFSET CHANGED FROM 1 TO 1
OFFSET CHANGED FROM 1 TO 1
OFFSET CHANGED FROM 1 TO 1
OFFSET CHANGED FROM 1 TO 1
OFFSET CHANGED FROM 1 TO 1
OFFSET CHANGED FROM 1 TO 1
OFFSET CHANGED FROM 1 TO 2
OFFSET CHANGED FROM 2 TO 1
OFFSET CHANGED FROM 1 TO 1
OFFSET CHANGED FROM 1 TO 1
OFFSET CHANGED FROM 1 TO 2
OFFSET CHANGED FROM 2 TO 1
OFFSET CHANGED FROM 1 TO 1
OFFSET CHANGED FROM 1 TO 1
OFFSET CHANGED FROM 1 TO 2
OFFSET CHANGED FROM 2 TO 1
OFFSET CHANGED FROM 1 TO 1
OFFSET CHANGED FROM 1 TO 1
OFFSET CHANGED FROM 1 TO 2
OFFSET CHANGED FROM 2 TO 1
OFFSET CHANGED FROM 1 TO 2
OFFSET CHANGED FROM 2 TO 1
OFFSET CHANGED FROM 1 TO 1
OFFSET CHANGED FROM 1 TO 1
OFFSET CHANGED FROM 1 TO 1
Heartbeat CPU 0 instructions: 50000002 cycles: 19371397 heartbeat IPC: 2.47508 cumulative IPC: 2.58113 (Simulation time: 0 hr 2 min 2 sec) 

Warmup complete CPU 0 instructions: 50000002 cycles: 19371397 (Simulation time: 0 hr 2 min 2 sec) 

OFFSET CHANGED FROM 1 TO 1
OFFSET CHANGED FROM 1 TO 1
OFFSET CHANGED FROM 1 TO 1
OFFSET CHANGED FROM 1 TO 1
OFFSET CHANGED FROM 1 TO 1
OFFSET CHANGED FROM 1 TO 1
OFFSET CHANGED FROM 1 TO 1
OFFSET CHANGED FROM 1 TO 1
OFFSET CHANGED FROM 1 TO 1
OFFSET CHANGED FROM 1 TO 1
OFFSET CHANGED FROM 1 TO 1
OFFSET CHANGED FROM 1 TO 1
OFFSET CHANGED FROM 1 TO 1
OFFSET CHANGED FROM 1 TO 1
OFFSET CHANGED FROM 1 TO 1
OFFSET CHANGED FROM 1 TO 2
OFFSET CHANGED FROM 2 TO 1
OFFSET CHANGED FROM 1 TO 1
OFFSET CHANGED FROM 1 TO 1
OFFSET CHANGED FROM 1 TO 1
OFFSET CHANGED FROM 1 TO 1
OFFSET CHANGED FROM 1 TO 1
OFFSET CHANGED FROM 1 TO 1
OFFSET CHANGED FROM 1 TO 1
OFFSET CHANGED FROM 1 TO 1
OFFSET CHANGED FROM 1 TO 1
OFFSET CHANGED FROM 1 TO 1
OFFSET CHANGED FROM 1 TO 1
OFFSET CHANGED FROM 1 TO 1
OFFSET CHANGED FROM 1 TO 1
OFFSET CHANGED FROM 1 TO 1
Heartbeat CPU 0 instructions: 60000001 cycles: 33073945 heartbeat IPC: 0.729791 cumulative IPC: 0.729791 (Simulation time: 0 hr 2 min 24 sec) 
OFFSET CHANGED FROM 1 TO 1
OFFSET CHANGED FROM 1 TO 1
OFFSET CHANGED FROM 1 TO 3
OFFSET CHANGED FROM 3 TO 1
OFFSET CHANGED FROM 1 TO 1
OFFSET CHANGED FROM 1 TO 1
OFFSET CHANGED FROM 1 TO 1
OFFSET CHANGED FROM 1 TO 1
OFFSET CHANGED FROM 1 TO 2
OFFSET CHANGED FROM 2 TO 1
OFFSET CHANGED FROM 1 TO 1
OFFSET CHANGED FROM 1 TO 1
OFFSET CHANGED FROM 1 TO 1
OFFSET CHANGED FROM 1 TO 1
OFFSET CHANGED FROM 1 TO 1
OFFSET CHANGED FROM 1 TO 1
OFFSET CHANGED FROM 1 TO 1
OFFSET CHANGED FROM 1 TO 1
OFFSET CHANGED FROM 1 TO 1
OFFSET CHANGED FROM 1 TO 3
OFFSET CHANGED FROM 3 TO 1
OFFSET CHANGED FROM 1 TO 1
OFFSET CHANGED FROM 1 TO 1
OFFSET CHANGED FROM 1 TO 1
OFFSET CHANGED FROM 1 TO 1
OFFSET CHANGED FROM 1 TO 2
OFFSET CHANGED FROM 2 TO 1
OFFSET CHANGED FROM 1 TO 1
OFFSET CHANGED FROM 1 TO 1
OFFSET CHANGED FROM 1 TO 1
Heartbeat CPU 0 instructions: 70000000 cycles: 46722485 heartbeat IPC: 0.732679 cumulative IPC: 0.731232 (Simulation time: 0 hr 2 min 45 sec) 
OFFSET CHANGED FROM 1 TO 1
OFFSET CHANGED FROM 1 TO 1
OFFSET CHANGED FROM 1 TO 1
OFFSET CHANGED FROM 1 TO 1
OFFSET CHANGED FROM 1 TO 1
OFFSET CHANGED FROM 1 TO 1
OFFSET CHANGED FROM 1 TO 1
OFFSET CHANGED FROM 1 TO 1
OFFSET CHANGED FROM 1 TO 2
OFFSET CHANGED FROM 2 TO 1
OFFSET CHANGED FROM 1 TO 1
OFFSET CHANGED FROM 1 TO 1
OFFSET CHANGED FROM 1 TO 1
OFFSET CHANGED FROM 1 TO 1
OFFSET CHANGED FROM 1 TO 1
OFFSET CHANGED FROM 1 TO 1
OFFSET CHANGED FROM 1 TO 1
OFFSET CHANGED FROM 1 TO 1
OFFSET CHANGED FROM 1 TO 1
OFFSET CHANGED FROM 1 TO 2
OFFSET CHANGED FROM 2 TO 1
OFFSET CHANGED FROM 1 TO 1
OFFSET CHANGED FROM 1 TO 2
OFFSET CHANGED FROM 2 TO 1
OFFSET CHANGED FROM 1 TO 1
OFFSET CHANGED FROM 1 TO 1
OFFSET CHANGED FROM 1 TO 1
OFFSET CHANGED FROM 1 TO 1
OFFSET CHANGED FROM 1 TO 1
OFFSET CHANGED FROM 1 TO 1
Heartbeat CPU 0 instructions: 80000001 cycles: 60363508 heartbeat IPC: 0.733083 cumulative IPC: 0.731848 (Simulation time: 0 hr 3 min 7 sec) 
OFFSET CHANGED FROM 1 TO 2
OFFSET CHANGED FROM 2 TO 1
OFFSET CHANGED FROM 1 TO 1
OFFSET CHANGED FROM 1 TO 2
OFFSET CHANGED FROM 2 TO 1
OFFSET CHANGED FROM 1 TO 1
OFFSET CHANGED FROM 1 TO 1
OFFSET CHANGED FROM 1 TO 2
OFFSET CHANGED FROM 2 TO 1
OFFSET CHANGED FROM 1 TO 1
OFFSET CHANGED FROM 1 TO 1
OFFSET CHANGED FROM 1 TO 1
OFFSET CHANGED FROM 1 TO 2
OFFSET CHANGED FROM 2 TO 1
OFFSET CHANGED FROM 1 TO 1
OFFSET CHANGED FROM 1 TO 1
OFFSET CHANGED FROM 1 TO 1
OFFSET CHANGED FROM 1 TO 1
OFFSET CHANGED FROM 1 TO 1
OFFSET CHANGED FROM 1 TO 1
OFFSET CHANGED FROM 1 TO 1
OFFSET CHANGED FROM 1 TO 1
OFFSET CHANGED FROM 1 TO 2
OFFSET CHANGED FROM 2 TO 1
OFFSET CHANGED FROM 1 TO 2
OFFSET CHANGED FROM 2 TO 1
OFFSET CHANGED FROM 1 TO 2
OFFSET CHANGED FROM 2 TO 1
OFFSET CHANGED FROM 1 TO 1
Heartbeat CPU 0 instructions: 90000003 cycles: 74009884 heartbeat IPC: 0.732795 cumulative IPC: 0.732085 (Simulation time: 0 hr 3 min 28 sec) 
OFFSET CHANGED FROM 1 TO 1
OFFSET CHANGED FROM 1 TO 1
OFFSET CHANGED FROM 1 TO 1
OFFSET CHANGED FROM 1 TO 1
OFFSET CHANGED FROM 1 TO 1
OFFSET CHANGED FROM 1 TO 1
OFFSET CHANGED FROM 1 TO 2
OFFSET CHANGED FROM 2 TO 1
OFFSET CHANGED FROM 1 TO 1
OFFSET CHANGED FROM 1 TO 1
OFFSET CHANGED FROM 1 TO 1
OFFSET CHANGED FROM 1 TO 2
OFFSET CHANGED FROM 2 TO 2
OFFSET CHANGED FROM 2 TO 4
OFFSET CHANGED FROM 4 TO 2
OFFSET CHANGED FROM 2 TO 4
OFFSET CHANGED FROM 4 TO 3
OFFSET CHANGED FROM 3 TO 4
OFFSET CHANGED FROM 4 TO 5
OFFSET CHANGED FROM 5 TO 6
OFFSET CHANGED FROM 6 TO 2
OFFSET CHANGED FROM 2 TO 3
OFFSET CHANGED FROM 3 TO 2
OFFSET CHANGED FROM 2 TO 4
OFFSET CHANGED FROM 4 TO 5
OFFSET CHANGED FROM 5 TO 7
OFFSET CHANGED FROM 7 TO 5
OFFSET CHANGED FROM 5 TO 3
OFFSET CHANGED FROM 3 TO 4
OFFSET CHANGED FROM 4 TO 3
OFFSET CHANGED FROM 3 TO 3
OFFSET CHANGED FROM 3 TO 3
OFFSET CHANGED FROM 3 TO 3
OFFSET CHANGED FROM 3 TO 3
OFFSET CHANGED FROM 3 TO 3
OFFSET CHANGED FROM 3 TO 4
OFFSET CHANGED FROM 4 TO 3
OFFSET CHANGED FROM 3 TO 3
OFFSET CHANGED FROM 3 TO 3
OFFSET CHANGED FROM 3 TO 4
OFFSET CHANGED FROM 4 TO 4
OFFSET CHANGED FROM 4 TO 4
OFFSET CHANGED FROM 4 TO 4
OFFSET CHANGED FROM 4 TO 5
OFFSET CHANGED FROM 5 TO 6
OFFSET CHANGED FROM 6 TO 8
OFFSET CHANGED FROM 8 TO 7
OFFSET CHANGED FROM 7 TO 6
OFFSET CHANGED FROM 6 TO 7
OFFSET CHANGED FROM 7 TO 2
OFFSET CHANGED FROM 2 TO 2
OFFSET CHANGED FROM 2 TO 3
OFFSET CHANGED FROM 3 TO 4
OFFSET CHANGED FROM 4 TO 3
OFFSET CHANGED FROM 3 TO 3
OFFSET CHANGED FROM 3 TO 3
OFFSET CHANGED FROM 3 TO 3
OFFSET CHANGED FROM 3 TO 2
OFFSET CHANGED FROM 2 TO 2
OFFSET CHANGED FROM 2 TO 3
OFFSET CHANGED FROM 3 TO 2
OFFSET CHANGED FROM 2 TO 3
OFFSET CHANGED FROM 3 TO 3
OFFSET CHANGED FROM 3 TO 2
OFFSET CHANGED FROM 2 TO 2
OFFSET CHANGED FROM 2 TO 3
OFFSET CHANGED FROM 3 TO 2
OFFSET CHANGED FROM 2 TO 3
OFFSET CHANGED FROM 3 TO 3
OFFSET CHANGED FROM 3 TO 3
OFFSET CHANGED FROM 3 TO 3
OFFSET CHANGED FROM 3 TO 3
OFFSET CHANGED FROM 3 TO 3
OFFSET CHANGED FROM 3 TO 2
OFFSET CHANGED FROM 2 TO 3
OFFSET CHANGED FROM 3 TO 3
OFFSET CHANGED FROM 3 TO 3
OFFSET CHANGED FROM 3 TO 3
OFFSET CHANGED FROM 3 TO 2
OFFSET CHANGED FROM 2 TO 3
OFFSET CHANGED FROM 3 TO 3
OFFSET CHANGED FROM 3 TO 2
OFFSET CHANGED FROM 2 TO 2
OFFSET CHANGED FROM 2 TO 3
OFFSET CHANGED FROM 3 TO 3
OFFSET CHANGED FROM 3 TO 3
OFFSET CHANGED FROM 3 TO 2
OFFSET CHANGED FROM 2 TO 3
OFFSET CHANGED FROM 3 TO 3
OFFSET CHANGED FROM 3 TO 3
OFFSET CHANGED FROM 3 TO 2
OFFSET CHANGED FROM 2 TO 2
OFFSET CHANGED FROM 2 TO 3
OFFSET CHANGED FROM 3 TO 3
OFFSET CHANGED FROM 3 TO 4
OFFSET CHANGED FROM 4 TO 3
OFFSET CHANGED FROM 3 TO 3
OFFSET CHANGED FROM 3 TO 3
OFFSET CHANGED FROM 3 TO 3
OFFSET CHANGED FROM 3 TO 3
OFFSET CHANGED FROM 3 TO 4
OFFSET CHANGED FROM 4 TO 3
OFFSET CHANGED FROM 3 TO 3
OFFSET CHANGED FROM 3 TO 3
OFFSET CHANGED FROM 3 TO 3
OFFSET CHANGED FROM 3 TO 3
OFFSET CHANGED FROM 3 TO 3
OFFSET CHANGED FROM 3 TO 3
OFFSET CHANGED FROM 3 TO 3
OFFSET CHANGED FROM 3 TO 3
OFFSET CHANGED FROM 3 TO 2
OFFSET CHANGED FROM 2 TO 2
OFFSET CHANGED FROM 2 TO 2
OFFSET CHANGED FROM 2 TO 2
OFFSET CHANGED FROM 2 TO 2
OFFSET CHANGED FROM 2 TO 2
OFFSET CHANGED FROM 2 TO 2
OFFSET CHANGED FROM 2 TO 2
OFFSET CHANGED FROM 2 TO 3
OFFSET CHANGED FROM 3 TO 3
OFFSET CHANGED FROM 3 TO 3
OFFSET CHANGED FROM 3 TO 4
OFFSET CHANGED FROM 4 TO 4
OFFSET CHANGED FROM 4 TO 4
OFFSET CHANGED FROM 4 TO 4
OFFSET CHANGED FROM 4 TO 2
OFFSET CHANGED FROM 2 TO 3
OFFSET CHANGED FROM 3 TO 3
OFFSET CHANGED FROM 3 TO 2
OFFSET CHANGED FROM 2 TO 2
OFFSET CHANGED FROM 2 TO 3
OFFSET CHANGED FROM 3 TO 3
OFFSET CHANGED FROM 3 TO 3
OFFSET CHANGED FROM 3 TO 5
OFFSET CHANGED FROM 5 TO 3
OFFSET CHANGED FROM 3 TO 4
OFFSET CHANGED FROM 4 TO 4
OFFSET CHANGED FROM 4 TO 2
OFFSET CHANGED FROM 2 TO 4
OFFSET CHANGED FROM 4 TO 5
OFFSET CHANGED FROM 5 TO 5
OFFSET CHANGED FROM 5 TO 4
OFFSET CHANGED FROM 4 TO 4
OFFSET CHANGED FROM 4 TO 3
OFFSET CHANGED FROM 3 TO 3
OFFSET CHANGED FROM 3 TO 3
OFFSET CHANGED FROM 3 TO 3
Heartbeat CPU 0 instructions: 100000003 cycles: 91439053 heartbeat IPC: 0.573751 cumulative IPC: 0.693793 (Simulation time: 0 hr 3 min 53 sec) 
OFFSET CHANGED FROM 3 TO 3
OFFSET CHANGED FROM 3 TO 4
OFFSET CHANGED FROM 4 TO 3
OFFSET CHANGED FROM 3 TO 3
OFFSET CHANGED FROM 3 TO 3
OFFSET CHANGED FROM 3 TO 2
OFFSET CHANGED FROM 2 TO 3
OFFSET CHANGED FROM 3 TO 3
OFFSET CHANGED FROM 3 TO 4
OFFSET CHANGED FROM 4 TO 3
OFFSET CHANGED FROM 3 TO 4
OFFSET CHANGED FROM 4 TO 5
OFFSET CHANGED FROM 5 TO 6
OFFSET CHANGED FROM 6 TO 2
OFFSET CHANGED FROM 2 TO 4
OFFSET CHANGED FROM 4 TO 4
OFFSET CHANGED FROM 4 TO 4
OFFSET CHANGED FROM 4 TO 4
OFFSET CHANGED FROM 4 TO 6
OFFSET CHANGED FROM 6 TO 2
OFFSET CHANGED FROM 2 TO 4
OFFSET CHANGED FROM 4 TO 4
OFFSET CHANGED FROM 4 TO 4
OFFSET CHANGED FROM 4 TO 4
OFFSET CHANGED FROM 4 TO 5
OFFSET CHANGED FROM 5 TO 5
OFFSET CHANGED FROM 5 TO 5
OFFSET CHANGED FROM 5 TO 5
OFFSET CHANGED FROM 5 TO 5
OFFSET CHANGED FROM 5 TO 5
OFFSET CHANGED FROM 5 TO 2
OFFSET CHANGED FROM 2 TO 32
OFFSET CHANGED FROM 32 TO 32
OFFSET CHANGED FROM 32 TO 32
OFFSET CHANGED FROM 32 TO 32
OFFSET CHANGED FROM 32 TO 32
OFFSET CHANGED FROM 32 TO 32
OFFSET CHANGED FROM 32 TO 32
OFFSET CHANGED FROM 32 TO 32
OFFSET CHANGED FROM 32 TO 32
OFFSET CHANGED FROM 32 TO 32
OFFSET CHANGED FROM 32 TO 32
OFFSET CHANGED FROM 32 TO 32
OFFSET CHANGED FROM 32 TO 32
OFFSET CHANGED FROM 32 TO 32
OFFSET CHANGED FROM 32 TO 32
OFFSET CHANGED FROM 32 TO 32
OFFSET CHANGED FROM 32 TO 32
OFFSET CHANGED FROM 32 TO 32
OFFSET CHANGED FROM 32 TO 32
OFFSET CHANGED FROM 32 TO 32
OFFSET CHANGED FROM 32 TO 32
OFFSET CHANGED FROM 32 TO 32
OFFSET CHANGED FROM 32 TO 32
OFFSET CHANGED FROM 32 TO 32
OFFSET CHANGED FROM 32 TO 32
OFFSET CHANGED FROM 32 TO 32
OFFSET CHANGED FROM 32 TO 32
OFFSET CHANGED FROM 32 TO 32
OFFSET CHANGED FROM 32 TO 32
OFFSET CHANGED FROM 32 TO 32
OFFSET CHANGED FROM 32 TO 32
OFFSET CHANGED FROM 32 TO 32
OFFSET CHANGED FROM 32 TO 32
OFFSET CHANGED FROM 32 TO 32
OFFSET CHANGED FROM 32 TO 32
OFFSET CHANGED FROM 32 TO 32
OFFSET CHANGED FROM 32 TO 32
OFFSET CHANGED FROM 32 TO 32
OFFSET CHANGED FROM 32 TO 32
OFFSET CHANGED FROM 32 TO 32
OFFSET CHANGED FROM 32 TO 32
OFFSET CHANGED FROM 32 TO 32
OFFSET CHANGED FROM 32 TO 32
OFFSET CHANGED FROM 32 TO 32
OFFSET CHANGED FROM 32 TO 32
OFFSET CHANGED FROM 32 TO 32
OFFSET CHANGED FROM 32 TO 32
OFFSET CHANGED FROM 32 TO 32
OFFSET CHANGED FROM 32 TO 32
OFFSET CHANGED FROM 32 TO 32
OFFSET CHANGED FROM 32 TO 32
OFFSET CHANGED FROM 32 TO 32
Heartbeat CPU 0 instructions: 110000000 cycles: 110434063 heartbeat IPC: 0.526454 cumulative IPC: 0.658887 (Simulation time: 0 hr 4 min 22 sec) 
OFFSET CHANGED FROM 32 TO 32
OFFSET CHANGED FROM 32 TO 32
OFFSET CHANGED FROM 32 TO 32
OFFSET CHANGED FROM 32 TO 32
OFFSET CHANGED FROM 32 TO 32
OFFSET CHANGED FROM 32 TO 32
OFFSET CHANGED FROM 32 TO 32
OFFSET CHANGED FROM 32 TO 32
OFFSET CHANGED FROM 32 TO 32
OFFSET CHANGED FROM 32 TO 32
OFFSET CHANGED FROM 32 TO 32
OFFSET CHANGED FROM 32 TO 32
OFFSET CHANGED FROM 32 TO 32
OFFSET CHANGED FROM 32 TO 32
OFFSET CHANGED FROM 32 TO 32
OFFSET CHANGED FROM 32 TO 32
OFFSET CHANGED FROM 32 TO 32
OFFSET CHANGED FROM 32 TO 32
OFFSET CHANGED FROM 32 TO 32
OFFSET CHANGED FROM 32 TO 32
OFFSET CHANGED FROM 32 TO 32
OFFSET CHANGED FROM 32 TO 32
OFFSET CHANGED FROM 32 TO 32
OFFSET CHANGED FROM 32 TO 32
OFFSET CHANGED FROM 32 TO 32
OFFSET CHANGED FROM 32 TO 32
OFFSET CHANGED FROM 32 TO 32
OFFSET CHANGED FROM 32 TO 32
OFFSET CHANGED FROM 32 TO 32
OFFSET CHANGED FROM 32 TO 32
OFFSET CHANGED FROM 32 TO 32
OFFSET CHANGED FROM 32 TO 32
OFFSET CHANGED FROM 32 TO 32
OFFSET CHANGED FROM 32 TO 32
OFFSET CHANGED FROM 32 TO 32
OFFSET CHANGED FROM 32 TO 32
OFFSET CHANGED FROM 32 TO 32
OFFSET CHANGED FROM 32 TO 32
OFFSET CHANGED FROM 32 TO 32
OFFSET CHANGED FROM 32 TO 32
OFFSET CHANGED FROM 32 TO 32
OFFSET CHANGED FROM 32 TO 32
OFFSET CHANGED FROM 32 TO 32
OFFSET CHANGED FROM 32 TO 32
OFFSET CHANGED FROM 32 TO 32
OFFSET CHANGED FROM 32 TO 32
OFFSET CHANGED FROM 32 TO 32
OFFSET CHANGED FROM 32 TO 32
OFFSET CHANGED FROM 32 TO 32
OFFSET CHANGED FROM 32 TO 32
OFFSET CHANGED FROM 32 TO 32
OFFSET CHANGED FROM 32 TO 32
OFFSET CHANGED FROM 32 TO 32
OFFSET CHANGED FROM 32 TO 32
OFFSET CHANGED FROM 32 TO 32
OFFSET CHANGED FROM 32 TO 32
OFFSET CHANGED FROM 32 TO 32
OFFSET CHANGED FROM 32 TO 32
OFFSET CHANGED FROM 32 TO 32
OFFSET CHANGED FROM 32 TO 32
OFFSET CHANGED FROM 32 TO 32
OFFSET CHANGED FROM 32 TO 32
OFFSET CHANGED FROM 32 TO 32
OFFSET CHANGED FROM 32 TO 32
OFFSET CHANGED FROM 32 TO 32
OFFSET CHANGED FROM 32 TO 32
OFFSET CHANGED FROM 32 TO 32
OFFSET CHANGED FROM 32 TO 32
OFFSET CHANGED FROM 32 TO 32
OFFSET CHANGED FROM 32 TO 32
OFFSET CHANGED FROM 32 TO 32
OFFSET CHANGED FROM 32 TO 32
OFFSET CHANGED FROM 32 TO 32
Heartbeat CPU 0 instructions: 120000000 cycles: 131458674 heartbeat IPC: 0.475633 cumulative IPC: 0.624513 (Simulation time: 0 hr 4 min 52 sec) 
OFFSET CHANGED FROM 32 TO 32
OFFSET CHANGED FROM 32 TO 32
OFFSET CHANGED FROM 32 TO 32
OFFSET CHANGED FROM 32 TO 32
OFFSET CHANGED FROM 32 TO 32
OFFSET CHANGED FROM 32 TO 32
OFFSET CHANGED FROM 32 TO 32
OFFSET CHANGED FROM 32 TO 32
OFFSET CHANGED FROM 32 TO 32
OFFSET CHANGED FROM 32 TO 32
OFFSET CHANGED FROM 32 TO 32
OFFSET CHANGED FROM 32 TO 32
OFFSET CHANGED FROM 32 TO 32
OFFSET CHANGED FROM 32 TO 32
OFFSET CHANGED FROM 32 TO 32
OFFSET CHANGED FROM 32 TO 32
OFFSET CHANGED FROM 32 TO 32
OFFSET CHANGED FROM 32 TO 32
OFFSET CHANGED FROM 32 TO 32
OFFSET CHANGED FROM 32 TO 32
OFFSET CHANGED FROM 32 TO 32
OFFSET CHANGED FROM 32 TO 32
OFFSET CHANGED FROM 32 TO 32
OFFSET CHANGED FROM 32 TO 32
OFFSET CHANGED FROM 32 TO 32
OFFSET CHANGED FROM 32 TO 32
OFFSET CHANGED FROM 32 TO 32
OFFSET CHANGED FROM 32 TO 32
OFFSET CHANGED FROM 32 TO 32
OFFSET CHANGED FROM 32 TO 32
OFFSET CHANGED FROM 32 TO 32
OFFSET CHANGED FROM 32 TO 32
OFFSET CHANGED FROM 32 TO 32
OFFSET CHANGED FROM 32 TO 32
OFFSET CHANGED FROM 32 TO 32
OFFSET CHANGED FROM 32 TO 32
OFFSET CHANGED FROM 32 TO 32
OFFSET CHANGED FROM 32 TO 32
OFFSET CHANGED FROM 32 TO 32
OFFSET CHANGED FROM 32 TO 32
OFFSET CHANGED FROM 32 TO 32
OFFSET CHANGED FROM 32 TO 32
OFFSET CHANGED FROM 32 TO 32
OFFSET CHANGED FROM 32 TO 32
OFFSET CHANGED FROM 32 TO 32
OFFSET CHANGED FROM 32 TO 32
OFFSET CHANGED FROM 32 TO 32
OFFSET CHANGED FROM 32 TO 32
OFFSET CHANGED FROM 32 TO 32
OFFSET CHANGED FROM 32 TO 2
OFFSET CHANGED FROM 2 TO 2
OFFSET CHANGED FROM 2 TO 2
OFFSET CHANGED FROM 2 TO 2
OFFSET CHANGED FROM 2 TO 2
OFFSET CHANGED FROM 2 TO 2
OFFSET CHANGED FROM 2 TO 2
OFFSET CHANGED FROM 2 TO 32
OFFSET CHANGED FROM 32 TO 32
OFFSET CHANGED FROM 32 TO 32
OFFSET CHANGED FROM 32 TO 32
OFFSET CHANGED FROM 32 TO 32
OFFSET CHANGED FROM 32 TO 32
OFFSET CHANGED FROM 32 TO 32
OFFSET CHANGED FROM 32 TO 32
OFFSET CHANGED FROM 32 TO 32
OFFSET CHANGED FROM 32 TO 32
OFFSET CHANGED FROM 32 TO 32
Heartbeat CPU 0 instructions: 130000001 cycles: 150979639 heartbeat IPC: 0.51227 cumulative IPC: 0.607865 (Simulation time: 0 hr 5 min 23 sec) 
OFFSET CHANGED FROM 32 TO 32
OFFSET CHANGED FROM 32 TO 32
OFFSET CHANGED FROM 32 TO 32
OFFSET CHANGED FROM 32 TO 32
OFFSET CHANGED FROM 32 TO 32
OFFSET CHANGED FROM 32 TO 32
OFFSET CHANGED FROM 32 TO 32
OFFSET CHANGED FROM 32 TO 32
OFFSET CHANGED FROM 32 TO 32
OFFSET CHANGED FROM 32 TO 32
OFFSET CHANGED FROM 32 TO 32
OFFSET CHANGED FROM 32 TO 32
OFFSET CHANGED FROM 32 TO 32
OFFSET CHANGED FROM 32 TO 32
OFFSET CHANGED FROM 32 TO 32
OFFSET CHANGED FROM 32 TO 32
OFFSET CHANGED FROM 32 TO 32
OFFSET CHANGED FROM 32 TO 32
OFFSET CHANGED FROM 32 TO 32
OFFSET CHANGED FROM 32 TO 32
OFFSET CHANGED FROM 32 TO 32
OFFSET CHANGED FROM 32 TO 32
OFFSET CHANGED FROM 32 TO 32
OFFSET CHANGED FROM 32 TO 32
OFFSET CHANGED FROM 32 TO 32
OFFSET CHANGED FROM 32 TO 32
OFFSET CHANGED FROM 32 TO 32
OFFSET CHANGED FROM 32 TO 32
OFFSET CHANGED FROM 32 TO 32
OFFSET CHANGED FROM 32 TO 32
OFFSET CHANGED FROM 32 TO 32
OFFSET CHANGED FROM 32 TO 32
OFFSET CHANGED FROM 32 TO 32
OFFSET CHANGED FROM 32 TO 32
OFFSET CHANGED FROM 32 TO 32
OFFSET CHANGED FROM 32 TO 32
OFFSET CHANGED FROM 32 TO 32
OFFSET CHANGED FROM 32 TO 32
OFFSET CHANGED FROM 32 TO 32
OFFSET CHANGED FROM 32 TO 32
OFFSET CHANGED FROM 32 TO 32
OFFSET CHANGED FROM 32 TO 32
OFFSET CHANGED FROM 32 TO 32
OFFSET CHANGED FROM 32 TO 32
OFFSET CHANGED FROM 32 TO 32
OFFSET CHANGED FROM 32 TO 32
OFFSET CHANGED FROM 32 TO 32
OFFSET CHANGED FROM 32 TO 32
OFFSET CHANGED FROM 32 TO 32
OFFSET CHANGED FROM 32 TO 32
OFFSET CHANGED FROM 32 TO 32
OFFSET CHANGED FROM 32 TO 32
OFFSET CHANGED FROM 32 TO 32
OFFSET CHANGED FROM 32 TO 32
OFFSET CHANGED FROM 32 TO 32
OFFSET CHANGED FROM 32 TO 32
OFFSET CHANGED FROM 32 TO 32
OFFSET CHANGED FROM 32 TO 32
OFFSET CHANGED FROM 32 TO 32
OFFSET CHANGED FROM 32 TO 32
OFFSET CHANGED FROM 32 TO 32
OFFSET CHANGED FROM 32 TO 32
OFFSET CHANGED FROM 32 TO 32
OFFSET CHANGED FROM 32 TO 32
OFFSET CHANGED FROM 32 TO 32
OFFSET CHANGED FROM 32 TO 32
OFFSET CHANGED FROM 32 TO 32
OFFSET CHANGED FROM 32 TO 32
OFFSET CHANGED FROM 32 TO 32
OFFSET CHANGED FROM 32 TO 32
OFFSET CHANGED FROM 32 TO 32
OFFSET CHANGED FROM 32 TO 32
OFFSET CHANGED FROM 32 TO 32
OFFSET CHANGED FROM 32 TO 32
Heartbeat CPU 0 instructions: 140000003 cycles: 172541053 heartbeat IPC: 0.463792 cumulative IPC: 0.587584 (Simulation time: 0 hr 5 min 54 sec) 
OFFSET CHANGED FROM 32 TO 32
OFFSET CHANGED FROM 32 TO 32
OFFSET CHANGED FROM 32 TO 32
OFFSET CHANGED FROM 32 TO 32
OFFSET CHANGED FROM 32 TO 32
OFFSET CHANGED FROM 32 TO 32
OFFSET CHANGED FROM 32 TO 32
OFFSET CHANGED FROM 32 TO 32
OFFSET CHANGED FROM 32 TO 32
OFFSET CHANGED FROM 32 TO 32
OFFSET CHANGED FROM 32 TO 32
OFFSET CHANGED FROM 32 TO 32
OFFSET CHANGED FROM 32 TO 32
OFFSET CHANGED FROM 32 TO 32
OFFSET CHANGED FROM 32 TO 32
OFFSET CHANGED FROM 32 TO 32
OFFSET CHANGED FROM 32 TO 32
OFFSET CHANGED FROM 32 TO 32
OFFSET CHANGED FROM 32 TO 32
OFFSET CHANGED FROM 32 TO 32
OFFSET CHANGED FROM 32 TO 32
OFFSET CHANGED FROM 32 TO 32
OFFSET CHANGED FROM 32 TO 32
OFFSET CHANGED FROM 32 TO 32
OFFSET CHANGED FROM 32 TO 32
OFFSET CHANGED FROM 32 TO 32
OFFSET CHANGED FROM 32 TO 32
OFFSET CHANGED FROM 32 TO 32
OFFSET CHANGED FROM 32 TO 32
OFFSET CHANGED FROM 32 TO 32
OFFSET CHANGED FROM 32 TO 32
OFFSET CHANGED FROM 32 TO 32
OFFSET CHANGED FROM 32 TO 32
OFFSET CHANGED FROM 32 TO 32
OFFSET CHANGED FROM 32 TO 32
OFFSET CHANGED FROM 32 TO 32
OFFSET CHANGED FROM 32 TO 32
OFFSET CHANGED FROM 32 TO 32
OFFSET CHANGED FROM 32 TO 32
OFFSET CHANGED FROM 32 TO 32
OFFSET CHANGED FROM 32 TO 32
OFFSET CHANGED FROM 32 TO 32
OFFSET CHANGED FROM 32 TO 32
OFFSET CHANGED FROM 32 TO 32
OFFSET CHANGED FROM 32 TO 32
OFFSET CHANGED FROM 32 TO 32
OFFSET CHANGED FROM 32 TO 32
OFFSET CHANGED FROM 32 TO 32
OFFSET CHANGED FROM 32 TO 32
OFFSET CHANGED FROM 32 TO 32
OFFSET CHANGED FROM 32 TO 32
OFFSET CHANGED FROM 32 TO 32
OFFSET CHANGED FROM 32 TO 32
OFFSET CHANGED FROM 32 TO 32
OFFSET CHANGED FROM 32 TO 32
OFFSET CHANGED FROM 32 TO 32
OFFSET CHANGED FROM 32 TO 32
OFFSET CHANGED FROM 32 TO 32
OFFSET CHANGED FROM 32 TO 32
OFFSET CHANGED FROM 32 TO 32
OFFSET CHANGED FROM 32 TO 32
OFFSET CHANGED FROM 32 TO 32
OFFSET CHANGED FROM 32 TO 32
OFFSET CHANGED FROM 32 TO 32
OFFSET CHANGED FROM 32 TO 32
OFFSET CHANGED FROM 32 TO 32
OFFSET CHANGED FROM 32 TO 32
OFFSET CHANGED FROM 32 TO 32
OFFSET CHANGED FROM 32 TO 32
OFFSET CHANGED FROM 32 TO 32
OFFSET CHANGED FROM 32 TO 32
OFFSET CHANGED FROM 32 TO 32
OFFSET CHANGED FROM 32 TO 32
OFFSET CHANGED FROM 32 TO 32
Heartbeat CPU 0 instructions: 150000000 cycles: 194064676 heartbeat IPC: 0.464606 cumulative IPC: 0.572432 (Simulation time: 0 hr 6 min 24 sec) 
OFFSET CHANGED FROM 32 TO 32
OFFSET CHANGED FROM 32 TO 32
OFFSET CHANGED FROM 32 TO 32
OFFSET CHANGED FROM 32 TO 32
OFFSET CHANGED FROM 32 TO 32
OFFSET CHANGED FROM 32 TO 32
OFFSET CHANGED FROM 32 TO 32
OFFSET CHANGED FROM 32 TO 32
OFFSET CHANGED FROM 32 TO 32
OFFSET CHANGED FROM 32 TO 32
OFFSET CHANGED FROM 32 TO 32
OFFSET CHANGED FROM 32 TO 32
OFFSET CHANGED FROM 32 TO 32
OFFSET CHANGED FROM 32 TO 32
OFFSET CHANGED FROM 32 TO 32
OFFSET CHANGED FROM 32 TO 32
OFFSET CHANGED FROM 32 TO 32
OFFSET CHANGED FROM 32 TO 32
OFFSET CHANGED FROM 32 TO 32
OFFSET CHANGED FROM 32 TO 32
OFFSET CHANGED FROM 32 TO 32
OFFSET CHANGED FROM 32 TO 32
OFFSET CHANGED FROM 32 TO 32
OFFSET CHANGED FROM 32 TO 32
OFFSET CHANGED FROM 32 TO 32
OFFSET CHANGED FROM 32 TO 32
OFFSET CHANGED FROM 32 TO 32
OFFSET CHANGED FROM 32 TO 32
OFFSET CHANGED FROM 32 TO 32
OFFSET CHANGED FROM 32 TO 32
OFFSET CHANGED FROM 32 TO 32
OFFSET CHANGED FROM 32 TO 32
OFFSET CHANGED FROM 32 TO 32
OFFSET CHANGED FROM 32 TO 32
OFFSET CHANGED FROM 32 TO 32
OFFSET CHANGED FROM 32 TO 32
OFFSET CHANGED FROM 32 TO 32
OFFSET CHANGED FROM 32 TO 32
OFFSET CHANGED FROM 32 TO 32
OFFSET CHANGED FROM 32 TO 32
OFFSET CHANGED FROM 32 TO 32
OFFSET CHANGED FROM 32 TO 32
Heartbeat CPU 0 instructions: 160000000 cycles: 208921416 heartbeat IPC: 0.673095 cumulative IPC: 0.580322 (Simulation time: 0 hr 6 min 48 sec) 
OFFSET CHANGED FROM 32 TO 32
OFFSET CHANGED FROM 32 TO 32
OFFSET CHANGED FROM 32 TO 32
OFFSET CHANGED FROM 32 TO 32
OFFSET CHANGED FROM 32 TO 32
OFFSET CHANGED FROM 32 TO 32
OFFSET CHANGED FROM 32 TO 32
OFFSET CHANGED FROM 32 TO 32
OFFSET CHANGED FROM 32 TO 32
OFFSET CHANGED FROM 32 TO 32
OFFSET CHANGED FROM 32 TO 32
OFFSET CHANGED FROM 32 TO 32
OFFSET CHANGED FROM 32 TO 32
OFFSET CHANGED FROM 32 TO 32
OFFSET CHANGED FROM 32 TO 32
OFFSET CHANGED FROM 32 TO 32
OFFSET CHANGED FROM 32 TO 32
OFFSET CHANGED FROM 32 TO 32
OFFSET CHANGED FROM 32 TO 32
OFFSET CHANGED FROM 32 TO 32
OFFSET CHANGED FROM 32 TO 32
OFFSET CHANGED FROM 32 TO 32
OFFSET CHANGED FROM 32 TO 32
OFFSET CHANGED FROM 32 TO 32
OFFSET CHANGED FROM 32 TO 32
OFFSET CHANGED FROM 32 TO 32
OFFSET CHANGED FROM 32 TO 32
OFFSET CHANGED FROM 32 TO 32
OFFSET CHANGED FROM 32 TO 32
OFFSET CHANGED FROM 32 TO 32
OFFSET CHANGED FROM 32 TO 32
OFFSET CHANGED FROM 32 TO 32
OFFSET CHANGED FROM 32 TO 32
OFFSET CHANGED FROM 32 TO 32
Heartbeat CPU 0 instructions: 170000002 cycles: 222308629 heartbeat IPC: 0.746982 cumulative IPC: 0.591316 (Simulation time: 0 hr 7 min 10 sec) 
OFFSET CHANGED FROM 32 TO 32
OFFSET CHANGED FROM 32 TO 32
OFFSET CHANGED FROM 32 TO 32
OFFSET CHANGED FROM 32 TO 32
OFFSET CHANGED FROM 32 TO 32
OFFSET CHANGED FROM 32 TO 32
OFFSET CHANGED FROM 32 TO 32
OFFSET CHANGED FROM 32 TO 32
OFFSET CHANGED FROM 32 TO 32
OFFSET CHANGED FROM 32 TO 32
OFFSET CHANGED FROM 32 TO 32
OFFSET CHANGED FROM 32 TO 32
OFFSET CHANGED FROM 32 TO 32
OFFSET CHANGED FROM 32 TO 32
OFFSET CHANGED FROM 32 TO 32
OFFSET CHANGED FROM 32 TO 32
OFFSET CHANGED FROM 32 TO 32
OFFSET CHANGED FROM 32 TO 32
OFFSET CHANGED FROM 32 TO 32
OFFSET CHANGED FROM 32 TO 32
OFFSET CHANGED FROM 32 TO 32
OFFSET CHANGED FROM 32 TO 32
OFFSET CHANGED FROM 32 TO 32
OFFSET CHANGED FROM 32 TO 32
OFFSET CHANGED FROM 32 TO 32
OFFSET CHANGED FROM 32 TO 32
OFFSET CHANGED FROM 32 TO 32
OFFSET CHANGED FROM 32 TO 32
OFFSET CHANGED FROM 32 TO 32
OFFSET CHANGED FROM 32 TO 32
OFFSET CHANGED FROM 32 TO 32
OFFSET CHANGED FROM 32 TO 32
OFFSET CHANGED FROM 32 TO 32
Heartbeat CPU 0 instructions: 180000000 cycles: 235895077 heartbeat IPC: 0.736027 cumulative IPC: 0.600396 (Simulation time: 0 hr 7 min 33 sec) 
OFFSET CHANGED FROM 32 TO 32
OFFSET CHANGED FROM 32 TO 32
OFFSET CHANGED FROM 32 TO 32
OFFSET CHANGED FROM 32 TO 32
OFFSET CHANGED FROM 32 TO 32
OFFSET CHANGED FROM 32 TO 32
OFFSET CHANGED FROM 32 TO 32
OFFSET CHANGED FROM 32 TO 32
OFFSET CHANGED FROM 32 TO 32
OFFSET CHANGED FROM 32 TO 32
OFFSET CHANGED FROM 32 TO 32
OFFSET CHANGED FROM 32 TO 32
OFFSET CHANGED FROM 32 TO 32
OFFSET CHANGED FROM 32 TO 32
OFFSET CHANGED FROM 32 TO 32
OFFSET CHANGED FROM 32 TO 32
OFFSET CHANGED FROM 32 TO 32
OFFSET CHANGED FROM 32 TO 32
OFFSET CHANGED FROM 32 TO 32
OFFSET CHANGED FROM 32 TO 32
OFFSET CHANGED FROM 32 TO 32
OFFSET CHANGED FROM 32 TO 32
OFFSET CHANGED FROM 32 TO 32
OFFSET CHANGED FROM 32 TO 32
OFFSET CHANGED FROM 32 TO 32
OFFSET CHANGED FROM 32 TO 32
OFFSET CHANGED FROM 32 TO 32
OFFSET CHANGED FROM 32 TO 32
OFFSET CHANGED FROM 32 TO 32
OFFSET CHANGED FROM 32 TO 32
OFFSET CHANGED FROM 32 TO 32
OFFSET CHANGED FROM 32 TO 32
OFFSET CHANGED FROM 32 TO 32
OFFSET CHANGED FROM 32 TO 32
Heartbeat CPU 0 instructions: 190000000 cycles: 249456224 heartbeat IPC: 0.737401 cumulative IPC: 0.608471 (Simulation time: 0 hr 7 min 56 sec) 
OFFSET CHANGED FROM 32 TO 32
OFFSET CHANGED FROM 32 TO 32
OFFSET CHANGED FROM 32 TO 32
OFFSET CHANGED FROM 32 TO 32
OFFSET CHANGED FROM 32 TO 32
OFFSET CHANGED FROM 32 TO 32
OFFSET CHANGED FROM 32 TO 32
OFFSET CHANGED FROM 32 TO 32
OFFSET CHANGED FROM 32 TO 32
OFFSET CHANGED FROM 32 TO 32
OFFSET CHANGED FROM 32 TO 32
OFFSET CHANGED FROM 32 TO 32
OFFSET CHANGED FROM 32 TO 32
OFFSET CHANGED FROM 32 TO 32
OFFSET CHANGED FROM 32 TO 32
OFFSET CHANGED FROM 32 TO 32
OFFSET CHANGED FROM 32 TO 32
OFFSET CHANGED FROM 32 TO 32
OFFSET CHANGED FROM 32 TO 32
OFFSET CHANGED FROM 32 TO 32
OFFSET CHANGED FROM 32 TO 32
OFFSET CHANGED FROM 32 TO 32
OFFSET CHANGED FROM 32 TO 32
OFFSET CHANGED FROM 32 TO 32
OFFSET CHANGED FROM 32 TO 32
OFFSET CHANGED FROM 32 TO 32
OFFSET CHANGED FROM 32 TO 32
OFFSET CHANGED FROM 32 TO 32
OFFSET CHANGED FROM 32 TO 32
OFFSET CHANGED FROM 32 TO 32
OFFSET CHANGED FROM 32 TO 32
OFFSET CHANGED FROM 32 TO 32
OFFSET CHANGED FROM 32 TO 32
Heartbeat CPU 0 instructions: 200000002 cycles: 262981384 heartbeat IPC: 0.739363 cumulative IPC: 0.615738 (Simulation time: 0 hr 8 min 18 sec) 
OFFSET CHANGED FROM 32 TO 32
OFFSET CHANGED FROM 32 TO 32
OFFSET CHANGED FROM 32 TO 32
OFFSET CHANGED FROM 32 TO 32
OFFSET CHANGED FROM 32 TO 32
OFFSET CHANGED FROM 32 TO 32
OFFSET CHANGED FROM 32 TO 32
OFFSET CHANGED FROM 32 TO 32
OFFSET CHANGED FROM 32 TO 32
OFFSET CHANGED FROM 32 TO 32
OFFSET CHANGED FROM 32 TO 32
OFFSET CHANGED FROM 32 TO 32
OFFSET CHANGED FROM 32 TO 32
OFFSET CHANGED FROM 32 TO 32
OFFSET CHANGED FROM 32 TO 32
OFFSET CHANGED FROM 32 TO 32
OFFSET CHANGED FROM 32 TO 32
OFFSET CHANGED FROM 32 TO 32
OFFSET CHANGED FROM 32 TO 32
OFFSET CHANGED FROM 32 TO 32
OFFSET CHANGED FROM 32 TO 32
OFFSET CHANGED FROM 32 TO 32
OFFSET CHANGED FROM 32 TO 32
OFFSET CHANGED FROM 32 TO 32
OFFSET CHANGED FROM 32 TO 32
OFFSET CHANGED FROM 32 TO 32
OFFSET CHANGED FROM 32 TO 32
OFFSET CHANGED FROM 32 TO 32
OFFSET CHANGED FROM 32 TO 32
OFFSET CHANGED FROM 32 TO 32
OFFSET CHANGED FROM 32 TO 32
OFFSET CHANGED FROM 32 TO 32
OFFSET CHANGED FROM 32 TO 32
Heartbeat CPU 0 instructions: 210000001 cycles: 276511935 heartbeat IPC: 0.739068 cumulative IPC: 0.622228 (Simulation time: 0 hr 8 min 41 sec) 
OFFSET CHANGED FROM 32 TO 32
OFFSET CHANGED FROM 32 TO 32
OFFSET CHANGED FROM 32 TO 32
OFFSET CHANGED FROM 32 TO 32
OFFSET CHANGED FROM 32 TO 32
OFFSET CHANGED FROM 32 TO 32
OFFSET CHANGED FROM 32 TO 32
OFFSET CHANGED FROM 32 TO 32
OFFSET CHANGED FROM 32 TO 32
OFFSET CHANGED FROM 32 TO 32
OFFSET CHANGED FROM 32 TO 32
OFFSET CHANGED FROM 32 TO 32
OFFSET CHANGED FROM 32 TO 32
OFFSET CHANGED FROM 32 TO 32
OFFSET CHANGED FROM 32 TO 32
OFFSET CHANGED FROM 32 TO 32
OFFSET CHANGED FROM 32 TO 32
OFFSET CHANGED FROM 32 TO 32
OFFSET CHANGED FROM 32 TO 32
OFFSET CHANGED FROM 32 TO 32
OFFSET CHANGED FROM 32 TO 32
OFFSET CHANGED FROM 32 TO 32
OFFSET CHANGED FROM 32 TO 32
OFFSET CHANGED FROM 32 TO 32
OFFSET CHANGED FROM 32 TO 32
OFFSET CHANGED FROM 32 TO 32
OFFSET CHANGED FROM 32 TO 32
OFFSET CHANGED FROM 32 TO 32
OFFSET CHANGED FROM 32 TO 32
OFFSET CHANGED FROM 32 TO 32
OFFSET CHANGED FROM 32 TO 32
OFFSET CHANGED FROM 32 TO 32
OFFSET CHANGED FROM 32 TO 32
OFFSET CHANGED FROM 32 TO 32
Heartbeat CPU 0 instructions: 220000000 cycles: 290039160 heartbeat IPC: 0.73925 cumulative IPC: 0.628076 (Simulation time: 0 hr 9 min 4 sec) 
OFFSET CHANGED FROM 32 TO 32
OFFSET CHANGED FROM 32 TO 32
OFFSET CHANGED FROM 32 TO 32
OFFSET CHANGED FROM 32 TO 32
OFFSET CHANGED FROM 32 TO 32
OFFSET CHANGED FROM 32 TO 32
OFFSET CHANGED FROM 32 TO 32
OFFSET CHANGED FROM 32 TO 32
OFFSET CHANGED FROM 32 TO 32
OFFSET CHANGED FROM 32 TO 32
OFFSET CHANGED FROM 32 TO 32
OFFSET CHANGED FROM 32 TO 32
OFFSET CHANGED FROM 32 TO 32
OFFSET CHANGED FROM 32 TO 32
OFFSET CHANGED FROM 32 TO 32
OFFSET CHANGED FROM 32 TO 32
OFFSET CHANGED FROM 32 TO 32
OFFSET CHANGED FROM 32 TO 32
OFFSET CHANGED FROM 32 TO 32
OFFSET CHANGED FROM 32 TO 32
OFFSET CHANGED FROM 32 TO 32
OFFSET CHANGED FROM 32 TO 32
OFFSET CHANGED FROM 32 TO 32
OFFSET CHANGED FROM 32 TO 32
OFFSET CHANGED FROM 32 TO 32
OFFSET CHANGED FROM 32 TO 32
OFFSET CHANGED FROM 32 TO 32
OFFSET CHANGED FROM 32 TO 32
OFFSET CHANGED FROM 32 TO 32
OFFSET CHANGED FROM 32 TO 32
OFFSET CHANGED FROM 32 TO 32
OFFSET CHANGED FROM 32 TO 32
OFFSET CHANGED FROM 32 TO 32
OFFSET CHANGED FROM 32 TO 32
OFFSET CHANGED FROM 32 TO 32
OFFSET CHANGED FROM 32 TO 32
OFFSET CHANGED FROM 32 TO 32
OFFSET CHANGED FROM 32 TO 32
OFFSET CHANGED FROM 32 TO 32
OFFSET CHANGED FROM 32 TO 32
OFFSET CHANGED FROM 32 TO 32
OFFSET CHANGED FROM 32 TO 32
OFFSET CHANGED FROM 32 TO 32
OFFSET CHANGED FROM 32 TO 32
OFFSET CHANGED FROM 32 TO 32
OFFSET CHANGED FROM 32 TO 32
OFFSET CHANGED FROM 32 TO 32
OFFSET CHANGED FROM 32 TO 32
OFFSET CHANGED FROM 32 TO 32
OFFSET CHANGED FROM 32 TO 32
OFFSET CHANGED FROM 32 TO 32
OFFSET CHANGED FROM 32 TO 32
OFFSET CHANGED FROM 32 TO 32
OFFSET CHANGED FROM 32 TO 32
OFFSET CHANGED FROM 32 TO 32
OFFSET CHANGED FROM 32 TO 32
OFFSET CHANGED FROM 32 TO 32
OFFSET CHANGED FROM 32 TO 32
OFFSET CHANGED FROM 32 TO 32
OFFSET CHANGED FROM 32 TO 32
OFFSET CHANGED FROM 32 TO 32
OFFSET CHANGED FROM 32 TO 32
Heartbeat CPU 0 instructions: 230000000 cycles: 309891223 heartbeat IPC: 0.503726 cumulative IPC: 0.619579 (Simulation time: 0 hr 9 min 35 sec) 
OFFSET CHANGED FROM 32 TO 32
OFFSET CHANGED FROM 32 TO 32
OFFSET CHANGED FROM 32 TO 32
OFFSET CHANGED FROM 32 TO 32
OFFSET CHANGED FROM 32 TO 32
OFFSET CHANGED FROM 32 TO 32
OFFSET CHANGED FROM 32 TO 32
OFFSET CHANGED FROM 32 TO 32
OFFSET CHANGED FROM 32 TO 32
OFFSET CHANGED FROM 32 TO 32
OFFSET CHANGED FROM 32 TO 32
OFFSET CHANGED FROM 32 TO 32
OFFSET CHANGED FROM 32 TO 32
OFFSET CHANGED FROM 32 TO 32
OFFSET CHANGED FROM 32 TO 32
OFFSET CHANGED FROM 32 TO 32
OFFSET CHANGED FROM 32 TO 32
OFFSET CHANGED FROM 32 TO 32
OFFSET CHANGED FROM 32 TO 32
OFFSET CHANGED FROM 32 TO 32
OFFSET CHANGED FROM 32 TO 32
OFFSET CHANGED FROM 32 TO 32
OFFSET CHANGED FROM 32 TO 32
OFFSET CHANGED FROM 32 TO 32
OFFSET CHANGED FROM 32 TO 32
OFFSET CHANGED FROM 32 TO 32
OFFSET CHANGED FROM 32 TO 32
OFFSET CHANGED FROM 32 TO 32
OFFSET CHANGED FROM 32 TO 32
OFFSET CHANGED FROM 32 TO 32
OFFSET CHANGED FROM 32 TO 32
OFFSET CHANGED FROM 32 TO 32
OFFSET CHANGED FROM 32 TO 32
OFFSET CHANGED FROM 32 TO 32
OFFSET CHANGED FROM 32 TO 32
OFFSET CHANGED FROM 32 TO 32
OFFSET CHANGED FROM 32 TO 32
OFFSET CHANGED FROM 32 TO 32
OFFSET CHANGED FROM 32 TO 32
OFFSET CHANGED FROM 32 TO 32
OFFSET CHANGED FROM 32 TO 32
OFFSET CHANGED FROM 32 TO 32
OFFSET CHANGED FROM 32 TO 32
OFFSET CHANGED FROM 32 TO 32
OFFSET CHANGED FROM 32 TO 32
OFFSET CHANGED FROM 32 TO 32
OFFSET CHANGED FROM 32 TO 32
OFFSET CHANGED FROM 32 TO 32
OFFSET CHANGED FROM 32 TO 32
OFFSET CHANGED FROM 32 TO 32
OFFSET CHANGED FROM 32 TO 32
OFFSET CHANGED FROM 32 TO 32
OFFSET CHANGED FROM 32 TO 32
OFFSET CHANGED FROM 32 TO 32
OFFSET CHANGED FROM 32 TO 32
OFFSET CHANGED FROM 32 TO 32
OFFSET CHANGED FROM 32 TO 32
OFFSET CHANGED FROM 32 TO 32
OFFSET CHANGED FROM 32 TO 32
OFFSET CHANGED FROM 32 TO 32
OFFSET CHANGED FROM 32 TO 32
OFFSET CHANGED FROM 32 TO 32
OFFSET CHANGED FROM 32 TO 32
OFFSET CHANGED FROM 32 TO 32
OFFSET CHANGED FROM 32 TO 32
OFFSET CHANGED FROM 32 TO 32
OFFSET CHANGED FROM 32 TO 32
OFFSET CHANGED FROM 32 TO 32
OFFSET CHANGED FROM 32 TO 32
OFFSET CHANGED FROM 32 TO 32
OFFSET CHANGED FROM 32 TO 32
OFFSET CHANGED FROM 32 TO 32
OFFSET CHANGED FROM 32 TO 32
OFFSET CHANGED FROM 32 TO 32
OFFSET CHANGED FROM 32 TO 32
OFFSET CHANGED FROM 32 TO 32
OFFSET CHANGED FROM 32 TO 32
OFFSET CHANGED FROM 32 TO 32
OFFSET CHANGED FROM 32 TO 32
OFFSET CHANGED FROM 32 TO 32
OFFSET CHANGED FROM 32 TO 32
Heartbeat CPU 0 instructions: 240000003 cycles: 328895335 heartbeat IPC: 0.526202 cumulative IPC: 0.613846 (Simulation time: 0 hr 10 min 3 sec) 
OFFSET CHANGED FROM 32 TO 32
OFFSET CHANGED FROM 32 TO 32
OFFSET CHANGED FROM 32 TO 32
OFFSET CHANGED FROM 32 TO 32
OFFSET CHANGED FROM 32 TO 32
OFFSET CHANGED FROM 32 TO 32
OFFSET CHANGED FROM 32 TO 32
OFFSET CHANGED FROM 32 TO 32
OFFSET CHANGED FROM 32 TO 32
OFFSET CHANGED FROM 32 TO 32
OFFSET CHANGED FROM 32 TO 32
OFFSET CHANGED FROM 32 TO 32
OFFSET CHANGED FROM 32 TO 32
OFFSET CHANGED FROM 32 TO 32
OFFSET CHANGED FROM 32 TO 32
OFFSET CHANGED FROM 32 TO 32
OFFSET CHANGED FROM 32 TO 32
OFFSET CHANGED FROM 32 TO 32
OFFSET CHANGED FROM 32 TO 32
OFFSET CHANGED FROM 32 TO 32
OFFSET CHANGED FROM 32 TO 32
OFFSET CHANGED FROM 32 TO 32
OFFSET CHANGED FROM 32 TO 32
OFFSET CHANGED FROM 32 TO 32
OFFSET CHANGED FROM 32 TO 32
OFFSET CHANGED FROM 32 TO 32
OFFSET CHANGED FROM 32 TO 32
OFFSET CHANGED FROM 32 TO 32
OFFSET CHANGED FROM 32 TO 32
OFFSET CHANGED FROM 32 TO 32
OFFSET CHANGED FROM 32 TO 32
OFFSET CHANGED FROM 32 TO 32
OFFSET CHANGED FROM 32 TO 32
OFFSET CHANGED FROM 32 TO 32
OFFSET CHANGED FROM 32 TO 32
OFFSET CHANGED FROM 32 TO 32
OFFSET CHANGED FROM 32 TO 32
OFFSET CHANGED FROM 32 TO 32
OFFSET CHANGED FROM 32 TO 32
OFFSET CHANGED FROM 32 TO 32
OFFSET CHANGED FROM 32 TO 32
OFFSET CHANGED FROM 32 TO 32
OFFSET CHANGED FROM 32 TO 32
OFFSET CHANGED FROM 32 TO 32
OFFSET CHANGED FROM 32 TO 32
OFFSET CHANGED FROM 32 TO 32
OFFSET CHANGED FROM 32 TO 32
OFFSET CHANGED FROM 32 TO 32
OFFSET CHANGED FROM 32 TO 5
OFFSET CHANGED FROM 5 TO 5
OFFSET CHANGED FROM 5 TO 5
OFFSET CHANGED FROM 5 TO 5
OFFSET CHANGED FROM 5 TO 3
OFFSET CHANGED FROM 3 TO 5
OFFSET CHANGED FROM 5 TO 6
OFFSET CHANGED FROM 6 TO 5
OFFSET CHANGED FROM 5 TO 4
OFFSET CHANGED FROM 4 TO 6
OFFSET CHANGED FROM 6 TO 5
OFFSET CHANGED FROM 5 TO 7
OFFSET CHANGED FROM 7 TO 9
OFFSET CHANGED FROM 9 TO 6
OFFSET CHANGED FROM 6 TO 6
OFFSET CHANGED FROM 6 TO 6
OFFSET CHANGED FROM 6 TO 7
OFFSET CHANGED FROM 7 TO 7
OFFSET CHANGED FROM 7 TO 9
PREFETCHING INTO L2 w/ PREFETCH SCORE 31 (MSHR OCC = 28)
OFFSET CHANGED FROM 9 TO 6
OFFSET CHANGED FROM 6 TO 5
OFFSET CHANGED FROM 5 TO 6
OFFSET CHANGED FROM 6 TO 8
OFFSET CHANGED FROM 8 TO 5
OFFSET CHANGED FROM 5 TO 5
OFFSET CHANGED FROM 5 TO 8
OFFSET CHANGED FROM 8 TO 6
OFFSET CHANGED FROM 6 TO 6
OFFSET CHANGED FROM 6 TO 5
OFFSET CHANGED FROM 5 TO 6
OFFSET CHANGED FROM 6 TO 5
OFFSET CHANGED FROM 5 TO 5
OFFSET CHANGED FROM 5 TO 7
OFFSET CHANGED FROM 7 TO 6
OFFSET CHANGED FROM 6 TO 5
OFFSET CHANGED FROM 5 TO 4
OFFSET CHANGED FROM 4 TO 5
OFFSET CHANGED FROM 5 TO 8
OFFSET CHANGED FROM 8 TO 6
OFFSET CHANGED FROM 6 TO 6
OFFSET CHANGED FROM 6 TO 5
OFFSET CHANGED FROM 5 TO 5
OFFSET CHANGED FROM 5 TO 5
OFFSET CHANGED FROM 5 TO 5
OFFSET CHANGED FROM 5 TO 5
OFFSET CHANGED FROM 5 TO 4
OFFSET CHANGED FROM 4 TO 4
OFFSET CHANGED FROM 4 TO 4
OFFSET CHANGED FROM 4 TO 6
OFFSET CHANGED FROM 6 TO 7
OFFSET CHANGED FROM 7 TO 6
OFFSET CHANGED FROM 6 TO 8
OFFSET CHANGED FROM 8 TO 5
OFFSET CHANGED FROM 5 TO 9
OFFSET CHANGED FROM 9 TO 5
OFFSET CHANGED FROM 5 TO 5
OFFSET CHANGED FROM 5 TO 5
OFFSET CHANGED FROM 5 TO 8
OFFSET CHANGED FROM 8 TO 7
OFFSET CHANGED FROM 7 TO 9
OFFSET CHANGED FROM 9 TO 5
OFFSET CHANGED FROM 5 TO 6
OFFSET CHANGED FROM 6 TO 6
OFFSET CHANGED FROM 6 TO 6
OFFSET CHANGED FROM 6 TO 5
OFFSET CHANGED FROM 5 TO 5
OFFSET CHANGED FROM 5 TO 8
OFFSET CHANGED FROM 8 TO 7
OFFSET CHANGED FROM 7 TO 8
Heartbeat CPU 0 instructions: 250000000 cycles: 349215887 heartbeat IPC: 0.492112 cumulative IPC: 0.606346 (Simulation time: 0 hr 10 min 39 sec) 
OFFSET CHANGED FROM 8 TO 8
OFFSET CHANGED FROM 8 TO 7
OFFSET CHANGED FROM 7 TO 8
OFFSET CHANGED FROM 8 TO 8
OFFSET CHANGED FROM 8 TO 7
OFFSET CHANGED FROM 7 TO 9
OFFSET CHANGED FROM 9 TO 5
OFFSET CHANGED FROM 5 TO 6
OFFSET CHANGED FROM 6 TO 6
OFFSET CHANGED FROM 6 TO 13
PREFETCHING INTO L2 w/ PREFETCH SCORE 31 (MSHR OCC = 28)
PREFETCHING INTO L2 w/ PREFETCH SCORE 31 (MSHR OCC = 28)
PREFETCHING INTO L2 w/ PREFETCH SCORE 31 (MSHR OCC = 29)
PREFETCHING INTO L2 w/ PREFETCH SCORE 31 (MSHR OCC = 28)
PREFETCHING INTO L2 w/ PREFETCH SCORE 31 (MSHR OCC = 28)
PREFETCHING INTO L2 w/ PREFETCH SCORE 31 (MSHR OCC = 29)
PREFETCHING INTO L2 w/ PREFETCH SCORE 31 (MSHR OCC = 31)
PREFETCHING INTO L2 w/ PREFETCH SCORE 31 (MSHR OCC = 29)
PREFETCHING INTO L2 w/ PREFETCH SCORE 31 (MSHR OCC = 28)
PREFETCHING INTO L2 w/ PREFETCH SCORE 31 (MSHR OCC = 28)
PREFETCHING INTO L2 w/ PREFETCH SCORE 31 (MSHR OCC = 28)
PREFETCHING INTO L2 w/ PREFETCH SCORE 31 (MSHR OCC = 28)
PREFETCHING INTO L2 w/ PREFETCH SCORE 31 (MSHR OCC = 28)
PREFETCHING INTO L2 w/ PREFETCH SCORE 31 (MSHR OCC = 28)
PREFETCHING INTO L2 w/ PREFETCH SCORE 31 (MSHR OCC = 28)
PREFETCHING INTO L2 w/ PREFETCH SCORE 31 (MSHR OCC = 28)
PREFETCHING INTO L2 w/ PREFETCH SCORE 31 (MSHR OCC = 28)
PREFETCHING INTO L2 w/ PREFETCH SCORE 31 (MSHR OCC = 29)
PREFETCHING INTO L2 w/ PREFETCH SCORE 31 (MSHR OCC = 29)
PREFETCHING INTO L2 w/ PREFETCH SCORE 31 (MSHR OCC = 28)
PREFETCHING INTO L2 w/ PREFETCH SCORE 31 (MSHR OCC = 28)
PREFETCHING INTO L2 w/ PREFETCH SCORE 31 (MSHR OCC = 28)
PREFETCHING INTO L2 w/ PREFETCH SCORE 31 (MSHR OCC = 28)
PREFETCHING INTO L2 w/ PREFETCH SCORE 31 (MSHR OCC = 28)
PREFETCHING INTO L2 w/ PREFETCH SCORE 31 (MSHR OCC = 28)
PREFETCHING INTO L2 w/ PREFETCH SCORE 31 (MSHR OCC = 28)
PREFETCHING INTO L2 w/ PREFETCH SCORE 31 (MSHR OCC = 28)
PREFETCHING INTO L2 w/ PREFETCH SCORE 31 (MSHR OCC = 28)
OFFSET CHANGED FROM 13 TO 7
OFFSET CHANGED FROM 7 TO 4
OFFSET CHANGED FROM 4 TO 5
OFFSET CHANGED FROM 5 TO 5
OFFSET CHANGED FROM 5 TO 6
OFFSET CHANGED FROM 6 TO 7
OFFSET CHANGED FROM 7 TO 7
OFFSET CHANGED FROM 7 TO 6
OFFSET CHANGED FROM 6 TO 5
OFFSET CHANGED FROM 5 TO 4
OFFSET CHANGED FROM 4 TO 4
OFFSET CHANGED FROM 4 TO 4
OFFSET CHANGED FROM 4 TO 4
OFFSET CHANGED FROM 4 TO 4
OFFSET CHANGED FROM 4 TO 4
OFFSET CHANGED FROM 4 TO 2
OFFSET CHANGED FROM 2 TO 32
OFFSET CHANGED FROM 32 TO 32
OFFSET CHANGED FROM 32 TO 32
OFFSET CHANGED FROM 32 TO 32
OFFSET CHANGED FROM 32 TO 32
OFFSET CHANGED FROM 32 TO 32
OFFSET CHANGED FROM 32 TO 32
OFFSET CHANGED FROM 32 TO 32
OFFSET CHANGED FROM 32 TO 32
OFFSET CHANGED FROM 32 TO 32
OFFSET CHANGED FROM 32 TO 32
OFFSET CHANGED FROM 32 TO 32
OFFSET CHANGED FROM 32 TO 32
OFFSET CHANGED FROM 32 TO 32
OFFSET CHANGED FROM 32 TO 32
OFFSET CHANGED FROM 32 TO 32
OFFSET CHANGED FROM 32 TO 32
OFFSET CHANGED FROM 32 TO 32
OFFSET CHANGED FROM 32 TO 32
OFFSET CHANGED FROM 32 TO 32
OFFSET CHANGED FROM 32 TO 32
OFFSET CHANGED FROM 32 TO 32
OFFSET CHANGED FROM 32 TO 32
OFFSET CHANGED FROM 32 TO 32
OFFSET CHANGED FROM 32 TO 32
OFFSET CHANGED FROM 32 TO 32
OFFSET CHANGED FROM 32 TO 32
OFFSET CHANGED FROM 32 TO 32
OFFSET CHANGED FROM 32 TO 32
OFFSET CHANGED FROM 32 TO 32
OFFSET CHANGED FROM 32 TO 32
OFFSET CHANGED FROM 32 TO 32
OFFSET CHANGED FROM 32 TO 32
OFFSET CHANGED FROM 32 TO 32
OFFSET CHANGED FROM 32 TO 32
OFFSET CHANGED FROM 32 TO 32
OFFSET CHANGED FROM 32 TO 32
OFFSET CHANGED FROM 32 TO 32
OFFSET CHANGED FROM 32 TO 32
OFFSET CHANGED FROM 32 TO 32
OFFSET CHANGED FROM 32 TO 32
OFFSET CHANGED FROM 32 TO 32
OFFSET CHANGED FROM 32 TO 32
OFFSET CHANGED FROM 32 TO 32
OFFSET CHANGED FROM 32 TO 32
OFFSET CHANGED FROM 32 TO 32
OFFSET CHANGED FROM 32 TO 32
OFFSET CHANGED FROM 32 TO 32
OFFSET CHANGED FROM 32 TO 32
OFFSET CHANGED FROM 32 TO 32
OFFSET CHANGED FROM 32 TO 32
OFFSET CHANGED FROM 32 TO 32
OFFSET CHANGED FROM 32 TO 32
OFFSET CHANGED FROM 32 TO 32
Heartbeat CPU 0 instructions: 260000003 cycles: 368834621 heartbeat IPC: 0.509717 cumulative IPC: 0.600922 (Simulation time: 0 hr 11 min 11 sec) 
OFFSET CHANGED FROM 32 TO 32
OFFSET CHANGED FROM 32 TO 32
OFFSET CHANGED FROM 32 TO 32
OFFSET CHANGED FROM 32 TO 32
OFFSET CHANGED FROM 32 TO 32
OFFSET CHANGED FROM 32 TO 32
OFFSET CHANGED FROM 32 TO 32
OFFSET CHANGED FROM 32 TO 32
OFFSET CHANGED FROM 32 TO 32
OFFSET CHANGED FROM 32 TO 32
OFFSET CHANGED FROM 32 TO 32
OFFSET CHANGED FROM 32 TO 32
OFFSET CHANGED FROM 32 TO 32
OFFSET CHANGED FROM 32 TO 32
OFFSET CHANGED FROM 32 TO 32
OFFSET CHANGED FROM 32 TO 32
OFFSET CHANGED FROM 32 TO 32
OFFSET CHANGED FROM 32 TO 32
OFFSET CHANGED FROM 32 TO 32
OFFSET CHANGED FROM 32 TO 32
OFFSET CHANGED FROM 32 TO 32
OFFSET CHANGED FROM 32 TO 32
OFFSET CHANGED FROM 32 TO 32
OFFSET CHANGED FROM 32 TO 32
OFFSET CHANGED FROM 32 TO 32
OFFSET CHANGED FROM 32 TO 32
OFFSET CHANGED FROM 32 TO 32
OFFSET CHANGED FROM 32 TO 32
OFFSET CHANGED FROM 32 TO 32
OFFSET CHANGED FROM 32 TO 32
OFFSET CHANGED FROM 32 TO 32
OFFSET CHANGED FROM 32 TO 32
OFFSET CHANGED FROM 32 TO 32
OFFSET CHANGED FROM 32 TO 32
OFFSET CHANGED FROM 32 TO 32
OFFSET CHANGED FROM 32 TO 32
OFFSET CHANGED FROM 32 TO 32
OFFSET CHANGED FROM 32 TO 32
OFFSET CHANGED FROM 32 TO 32
OFFSET CHANGED FROM 32 TO 32
OFFSET CHANGED FROM 32 TO 32
OFFSET CHANGED FROM 32 TO 32
OFFSET CHANGED FROM 32 TO 32
OFFSET CHANGED FROM 32 TO 32
OFFSET CHANGED FROM 32 TO 32
OFFSET CHANGED FROM 32 TO 32
OFFSET CHANGED FROM 32 TO 32
OFFSET CHANGED FROM 32 TO 32
OFFSET CHANGED FROM 32 TO 32
OFFSET CHANGED FROM 32 TO 32
OFFSET CHANGED FROM 32 TO 32
OFFSET CHANGED FROM 32 TO 32
OFFSET CHANGED FROM 32 TO 32
OFFSET CHANGED FROM 32 TO 32
OFFSET CHANGED FROM 32 TO 32
OFFSET CHANGED FROM 32 TO 32
OFFSET CHANGED FROM 32 TO 32
OFFSET CHANGED FROM 32 TO 32
OFFSET CHANGED FROM 32 TO 32
OFFSET CHANGED FROM 32 TO 32
OFFSET CHANGED FROM 32 TO 32
OFFSET CHANGED FROM 32 TO 32
OFFSET CHANGED FROM 32 TO 32
OFFSET CHANGED FROM 32 TO 32
OFFSET CHANGED FROM 32 TO 32
OFFSET CHANGED FROM 32 TO 32
OFFSET CHANGED FROM 32 TO 32
OFFSET CHANGED FROM 32 TO 32
OFFSET CHANGED FROM 32 TO 32
OFFSET CHANGED FROM 32 TO 32
OFFSET CHANGED FROM 32 TO 32
OFFSET CHANGED FROM 32 TO 32
OFFSET CHANGED FROM 32 TO 32
OFFSET CHANGED FROM 32 TO 32
Heartbeat CPU 0 instructions: 270000003 cycles: 389615514 heartbeat IPC: 0.481211 cumulative IPC: 0.594203 (Simulation time: 0 hr 11 min 41 sec) 
OFFSET CHANGED FROM 32 TO 32
OFFSET CHANGED FROM 32 TO 32
OFFSET CHANGED FROM 32 TO 32
OFFSET CHANGED FROM 32 TO 32
OFFSET CHANGED FROM 32 TO 32
OFFSET CHANGED FROM 32 TO 32
OFFSET CHANGED FROM 32 TO 32
OFFSET CHANGED FROM 32 TO 32
OFFSET CHANGED FROM 32 TO 32
OFFSET CHANGED FROM 32 TO 32
OFFSET CHANGED FROM 32 TO 32
OFFSET CHANGED FROM 32 TO 32
OFFSET CHANGED FROM 32 TO 32
OFFSET CHANGED FROM 32 TO 32
OFFSET CHANGED FROM 32 TO 32
OFFSET CHANGED FROM 32 TO 32
OFFSET CHANGED FROM 32 TO 32
OFFSET CHANGED FROM 32 TO 32
OFFSET CHANGED FROM 32 TO 32
OFFSET CHANGED FROM 32 TO 32
OFFSET CHANGED FROM 32 TO 32
OFFSET CHANGED FROM 32 TO 32
OFFSET CHANGED FROM 32 TO 32
OFFSET CHANGED FROM 32 TO 32
OFFSET CHANGED FROM 32 TO 32
OFFSET CHANGED FROM 32 TO 32
OFFSET CHANGED FROM 32 TO 32
OFFSET CHANGED FROM 32 TO 32
OFFSET CHANGED FROM 32 TO 32
OFFSET CHANGED FROM 32 TO 32
OFFSET CHANGED FROM 32 TO 32
OFFSET CHANGED FROM 32 TO 32
OFFSET CHANGED FROM 32 TO 32
OFFSET CHANGED FROM 32 TO 32
OFFSET CHANGED FROM 32 TO 32
OFFSET CHANGED FROM 32 TO 32
OFFSET CHANGED FROM 32 TO 32
OFFSET CHANGED FROM 32 TO 32
OFFSET CHANGED FROM 32 TO 32
OFFSET CHANGED FROM 32 TO 32
OFFSET CHANGED FROM 32 TO 32
OFFSET CHANGED FROM 32 TO 32
OFFSET CHANGED FROM 32 TO 32
OFFSET CHANGED FROM 32 TO 32
OFFSET CHANGED FROM 32 TO 32
OFFSET CHANGED FROM 32 TO 32
OFFSET CHANGED FROM 32 TO 32
OFFSET CHANGED FROM 32 TO 32
OFFSET CHANGED FROM 32 TO 32
OFFSET CHANGED FROM 32 TO 32
OFFSET CHANGED FROM 32 TO 32
OFFSET CHANGED FROM 32 TO 32
OFFSET CHANGED FROM 32 TO 32
OFFSET CHANGED FROM 32 TO 32
OFFSET CHANGED FROM 32 TO 32
OFFSET CHANGED FROM 32 TO 32
Heartbeat CPU 0 instructions: 280000000 cycles: 407705847 heartbeat IPC: 0.552781 cumulative IPC: 0.592273 (Simulation time: 0 hr 12 min 8 sec) 
OFFSET CHANGED FROM 32 TO 32
OFFSET CHANGED FROM 32 TO 32
OFFSET CHANGED FROM 32 TO 32
OFFSET CHANGED FROM 32 TO 32
OFFSET CHANGED FROM 32 TO 32
OFFSET CHANGED FROM 32 TO 32
OFFSET CHANGED FROM 32 TO 32
OFFSET CHANGED FROM 32 TO 32
OFFSET CHANGED FROM 32 TO 32
OFFSET CHANGED FROM 32 TO 32
OFFSET CHANGED FROM 32 TO 32
OFFSET CHANGED FROM 32 TO 32
OFFSET CHANGED FROM 32 TO 32
OFFSET CHANGED FROM 32 TO 32
OFFSET CHANGED FROM 32 TO 32
OFFSET CHANGED FROM 32 TO 32
OFFSET CHANGED FROM 32 TO 32
OFFSET CHANGED FROM 32 TO 32
OFFSET CHANGED FROM 32 TO 32
OFFSET CHANGED FROM 32 TO 32
OFFSET CHANGED FROM 32 TO 32
OFFSET CHANGED FROM 32 TO 32
OFFSET CHANGED FROM 32 TO 32
OFFSET CHANGED FROM 32 TO 32
OFFSET CHANGED FROM 32 TO 32
Heartbeat CPU 0 instructions: 290000002 cycles: 421596173 heartbeat IPC: 0.719926 cumulative IPC: 0.596681 (Simulation time: 0 hr 12 min 31 sec) 
OFFSET CHANGED FROM 32 TO 32
OFFSET CHANGED FROM 32 TO 32
OFFSET CHANGED FROM 32 TO 32
OFFSET CHANGED FROM 32 TO 32
OFFSET CHANGED FROM 32 TO 32
OFFSET CHANGED FROM 32 TO 32
OFFSET CHANGED FROM 32 TO 32
OFFSET CHANGED FROM 32 TO 32
OFFSET CHANGED FROM 32 TO 32
OFFSET CHANGED FROM 32 TO 32
OFFSET CHANGED FROM 32 TO 32
OFFSET CHANGED FROM 32 TO 32
OFFSET CHANGED FROM 32 TO 32
OFFSET CHANGED FROM 32 TO 32
OFFSET CHANGED FROM 32 TO 32
OFFSET CHANGED FROM 32 TO 32
OFFSET CHANGED FROM 32 TO 32
OFFSET CHANGED FROM 32 TO 32
OFFSET CHANGED FROM 32 TO 32
OFFSET CHANGED FROM 32 TO 32
OFFSET CHANGED FROM 32 TO 32
OFFSET CHANGED FROM 32 TO 32
OFFSET CHANGED FROM 32 TO 32
OFFSET CHANGED FROM 32 TO 32
OFFSET CHANGED FROM 32 TO 32
OFFSET CHANGED FROM 32 TO 32
Heartbeat CPU 0 instructions: 300000002 cycles: 435348771 heartbeat IPC: 0.727135 cumulative IPC: 0.600994 (Simulation time: 0 hr 12 min 54 sec) 
Finished CPU 0 instructions: 250000000 cycles: 415977374 cumulative IPC: 0.600994 (Simulation time: 0 hr 12 min 54 sec) 

ChampSim completed all CPUs

Region of Interest Statistics

CPU 0 cumulative IPC: 0.600994 instructions: 250000000 cycles: 415977374
L1D TOTAL     ACCESS:   56050876  HIT:   50953502  MISS:    5097374
L1D LOAD      ACCESS:   30707424  HIT:   26410072  MISS:    4297352
L1D RFO       ACCESS:   25343452  HIT:   24543430  MISS:     800022
L1D PREFETCH  ACCESS:          0  HIT:          0  MISS:          0
L1D WRITEBACK ACCESS:          0  HIT:          0  MISS:          0
L1D PREFETCH  REQUESTED:          0  ISSUED:          0  USEFUL:          0  USELESS:          0
L1D AVERAGE MISS LATENCY: 151.635 cycles
L1I TOTAL     ACCESS:   45220632  HIT:   45220574  MISS:         58
L1I LOAD      ACCESS:   45220606  HIT:   45220571  MISS:         35
L1I RFO       ACCESS:          0  HIT:          0  MISS:          0
L1I PREFETCH  ACCESS:         26  HIT:          3  MISS:         23
L1I WRITEBACK ACCESS:          0  HIT:          0  MISS:          0
L1I PREFETCH  REQUESTED:         43  ISSUED:         43  USEFUL:         13  USELESS:          0
L1I AVERAGE MISS LATENCY: 198.293 cycles
L2C TOTAL     ACCESS:    8623392  HIT:    3299963  MISS:    5323429
L2C LOAD      ACCESS:    4297385  HIT:    1746807  MISS:    2550578
L2C RFO       ACCESS:     800022  HIT:          1  MISS:     800021
L2C PREFETCH  ACCESS:    1976084  HIT:       3549  MISS:    1972535
L2C WRITEBACK ACCESS:    1549901  HIT:    1549606  MISS:        295
L2C PREFETCH  REQUESTED:    2559378  ISSUED:    2559378  USEFUL:    1746743  USELESS:     226507
L2C AVERAGE MISS LATENCY: 219.429 cycles
LLC TOTAL     ACCESS:    6873065  HIT:    1554482  MISS:    5318583
LLC LOAD      ACCESS:    2052262  HIT:       2797  MISS:    2049465
LLC RFO       ACCESS:     800021  HIT:        692  MISS:     799329
LLC PREFETCH  ACCESS:    2470876  HIT:       1104  MISS:    2469772
LLC WRITEBACK ACCESS:    1549906  HIT:    1549889  MISS:         17
LLC PREFETCH  REQUESTED:          0  ISSUED:          0  USEFUL:       2930  USELESS:    2480264
LLC AVERAGE MISS LATENCY: 207.343 cycles
Major fault: 0 Minor fault: 93932
CPU 0 L1I next line prefetcher final stats
CPU 0 L2C best offset prefetcher final stats

DRAM Statistics
 CHANNEL 0
 RQ ROW_BUFFER_HIT:    2356600  ROW_BUFFER_MISS:    2961932
 DBUS_CONGESTED:    1822525
 WQ ROW_BUFFER_HIT:     796474  ROW_BUFFER_MISS:     753420  FULL:          0

 AVG_CONGESTED_CYCLE: 6

CPU 0 Branch Prediction Accuracy: 79.9879% MPKI: 13.2782 Average ROB Occupancy at Mispredict: 63.4209

Branch types
NOT_BRANCH: 233411924 93.3648%
BRANCH_DIRECT_JUMP: 160015 0.064006%
BRANCH_INDIRECT: 0 0%
BRANCH_CONDITIONAL: 12308248 4.9233%
BRANCH_DIRECT_CALL: 2059732 0.823893%
BRANCH_INDIRECT_CALL: 0 0%
BRANCH_RETURN: 2059732 0.823893%
BRANCH_OTHER: 0 0%

