
*** ChampSim Multicore Out-of-Order Simulator ***

Warmup Instructions: 50000000
Simulation Instructions: 250000000
Number of CPUs: 1
LLC sets: 2048
LLC ways: 16
Off-chip DRAM Size: 4096 MB Channels: 1 Width: 64-bit Data Rate: 3200 MT/s

CPU 0 runs /home/wezelis2/ECE511_Project/ChampSim/dpc3_traces/435.gromacs-134B.champsimtrace.xz
CPU 0 Bimodal branch predictor
CPU 0 L1I next line prefetcher
INIT BEST RECENT REQUEST TABLE MODULE
INIT DELAY QUEUE MODULE
INIT PREFETCH THROTTLE MODULE
INIT OFFSET SCORE MODULE
INIT BEST OFFSET PREFETCHER
OFFSET CHANGED FROM 1 TO 1
CHANGING MSHR THRESHOLD FROM 28 TO MIN 2
CHANGING MSHR THRESHOLD FROM 2 TO 3
CHANGING MSHR THRESHOLD FROM 3 TO 5
CHANGING MSHR THRESHOLD FROM 5 TO 6
CHANGING MSHR THRESHOLD FROM 6 TO 8
CHANGING MSHR THRESHOLD FROM 8 TO 10
CHANGING MSHR THRESHOLD FROM 10 TO 11
CHANGING MSHR THRESHOLD FROM 11 TO 13
CHANGING MSHR THRESHOLD FROM 13 TO 11
CHANGING MSHR THRESHOLD FROM 11 TO 10
CHANGING MSHR THRESHOLD FROM 10 TO 8
CHANGING MSHR THRESHOLD FROM 8 TO 6
CHANGING MSHR THRESHOLD FROM 6 TO 5
CHANGING MSHR THRESHOLD FROM 5 TO 3
CHANGING MSHR THRESHOLD FROM 3 TO 2
NO PREFETCH REQUEST BECAUSE PREFETCH SCORE 9 IS NOT GREATER THAN 20 (MSHR OCC = 2)
CHANGING MSHR THRESHOLD FROM 2 TO 3
CHANGING MSHR THRESHOLD FROM 3 TO 5
CHANGING MSHR THRESHOLD FROM 5 TO 6
CHANGING MSHR THRESHOLD FROM 6 TO 8
CHANGING MSHR THRESHOLD FROM 8 TO 10
CHANGING MSHR THRESHOLD FROM 10 TO 11
CHANGING MSHR THRESHOLD FROM 11 TO 13
CHANGING MSHR THRESHOLD FROM 13 TO 15
OFFSET CHANGED FROM 1 TO 2
CHANGING MSHR THRESHOLD FROM 15 TO 13
CHANGING MSHR THRESHOLD FROM 13 TO 11
CHANGING MSHR THRESHOLD FROM 11 TO 10
CHANGING MSHR THRESHOLD FROM 10 TO 8
CHANGING MSHR THRESHOLD FROM 8 TO 6
CHANGING MSHR THRESHOLD FROM 6 TO 5
CHANGING MSHR THRESHOLD FROM 5 TO 3
CHANGING MSHR THRESHOLD FROM 3 TO 2
CHANGING MSHR THRESHOLD FROM 2 TO 3
CHANGING MSHR THRESHOLD FROM 3 TO 5
CHANGING MSHR THRESHOLD FROM 5 TO 6
CHANGING MSHR THRESHOLD FROM 6 TO 8
CHANGING MSHR THRESHOLD FROM 8 TO 10
CHANGING MSHR THRESHOLD FROM 10 TO 11
CHANGING MSHR THRESHOLD FROM 11 TO 13
CHANGING MSHR THRESHOLD FROM 13 TO 15
CHANGING MSHR THRESHOLD FROM 15 TO 16
CHANGING MSHR THRESHOLD FROM 16 TO 18
CHANGING MSHR THRESHOLD FROM 18 TO 19
CHANGING MSHR THRESHOLD FROM 19 TO 21
CHANGING MSHR THRESHOLD FROM 21 TO 23
CHANGING MSHR THRESHOLD FROM 23 TO 24
CHANGING MSHR THRESHOLD FROM 24 TO 26
CHANGING MSHR THRESHOLD FROM 26 TO 28
CHANGING MSHR THRESHOLD FROM 28 TO 26
CHANGING MSHR THRESHOLD FROM 26 TO 24
CHANGING MSHR THRESHOLD FROM 24 TO 23
CHANGING MSHR THRESHOLD FROM 23 TO 21
CHANGING MSHR THRESHOLD FROM 21 TO 19
CHANGING MSHR THRESHOLD FROM 19 TO 18
CHANGING MSHR THRESHOLD FROM 18 TO 16
CHANGING MSHR THRESHOLD FROM 16 TO 15
CHANGING MSHR THRESHOLD FROM 15 TO 13
CHANGING MSHR THRESHOLD FROM 13 TO 11
CHANGING MSHR THRESHOLD FROM 11 TO 10
CHANGING MSHR THRESHOLD FROM 10 TO 8
CHANGING MSHR THRESHOLD FROM 8 TO 6
CHANGING MSHR THRESHOLD FROM 6 TO 5
CHANGING MSHR THRESHOLD FROM 5 TO 3
CHANGING MSHR THRESHOLD FROM 3 TO 2
OFFSET CHANGED FROM 2 TO 1
CHANGING MSHR THRESHOLD FROM 2 TO 3
CHANGING MSHR THRESHOLD FROM 3 TO 5
CHANGING MSHR THRESHOLD FROM 5 TO 6
CHANGING MSHR THRESHOLD FROM 6 TO 8
CHANGING MSHR THRESHOLD FROM 8 TO 10
OFFSET CHANGED FROM 1 TO 1
CHANGING MSHR THRESHOLD FROM 10 TO 11
CHANGING MSHR THRESHOLD FROM 11 TO 13
CHANGING MSHR THRESHOLD FROM 13 TO 15
CHANGING MSHR THRESHOLD FROM 15 TO 16
CHANGING MSHR THRESHOLD FROM 16 TO 18
CHANGING MSHR THRESHOLD FROM 18 TO 19
CHANGING MSHR THRESHOLD FROM 19 TO 21
CHANGING MSHR THRESHOLD FROM 21 TO 23
CHANGING MSHR THRESHOLD FROM 23 TO 24
CHANGING MSHR THRESHOLD FROM 24 TO 26
CHANGING MSHR THRESHOLD FROM 26 TO 28
OFFSET CHANGED FROM 1 TO 1
OFFSET CHANGED FROM 1 TO 1
OFFSET CHANGED FROM 1 TO 2
OFFSET CHANGED FROM 2 TO 8
CHANGING MSHR THRESHOLD FROM 28 TO 26
CHANGING MSHR THRESHOLD FROM 26 TO 24
CHANGING MSHR THRESHOLD FROM 24 TO 23
CHANGING MSHR THRESHOLD FROM 23 TO 21
CHANGING MSHR THRESHOLD FROM 21 TO 19
CHANGING MSHR THRESHOLD FROM 19 TO 18
CHANGING MSHR THRESHOLD FROM 18 TO 16
CHANGING MSHR THRESHOLD FROM 16 TO 15
CHANGING MSHR THRESHOLD FROM 15 TO 13
CHANGING MSHR THRESHOLD FROM 13 TO 11
CHANGING MSHR THRESHOLD FROM 11 TO 10
CHANGING MSHR THRESHOLD FROM 10 TO 8
CHANGING MSHR THRESHOLD FROM 8 TO 6
CHANGING MSHR THRESHOLD FROM 6 TO 5
CHANGING MSHR THRESHOLD FROM 5 TO 3
CHANGING MSHR THRESHOLD FROM 3 TO 2
CHANGING MSHR THRESHOLD FROM 2 TO 3
CHANGING MSHR THRESHOLD FROM 3 TO 5
CHANGING MSHR THRESHOLD FROM 5 TO 6
CHANGING MSHR THRESHOLD FROM 6 TO 8
CHANGING MSHR THRESHOLD FROM 8 TO 10
CHANGING MSHR THRESHOLD FROM 10 TO 11
CHANGING MSHR THRESHOLD FROM 11 TO 13
CHANGING MSHR THRESHOLD FROM 13 TO 15
CHANGING MSHR THRESHOLD FROM 15 TO 16
CHANGING MSHR THRESHOLD FROM 16 TO 18
CHANGING MSHR THRESHOLD FROM 18 TO 19
CHANGING MSHR THRESHOLD FROM 19 TO 21
CHANGING MSHR THRESHOLD FROM 21 TO 23
CHANGING MSHR THRESHOLD FROM 23 TO 24
CHANGING MSHR THRESHOLD FROM 24 TO 26
CHANGING MSHR THRESHOLD FROM 26 TO 28
CHANGING MSHR THRESHOLD FROM 28 TO 26
CHANGING MSHR THRESHOLD FROM 26 TO 24
CHANGING MSHR THRESHOLD FROM 24 TO 23
CHANGING MSHR THRESHOLD FROM 23 TO 21
CHANGING MSHR THRESHOLD FROM 21 TO 19
CHANGING MSHR THRESHOLD FROM 19 TO 18
CHANGING MSHR THRESHOLD FROM 18 TO 16
CHANGING MSHR THRESHOLD FROM 16 TO 15
CHANGING MSHR THRESHOLD FROM 15 TO 13
CHANGING MSHR THRESHOLD FROM 13 TO 11
CHANGING MSHR THRESHOLD FROM 11 TO 10
CHANGING MSHR THRESHOLD FROM 10 TO 8
CHANGING MSHR THRESHOLD FROM 8 TO 6
CHANGING MSHR THRESHOLD FROM 6 TO 5
CHANGING MSHR THRESHOLD FROM 5 TO 3
CHANGING MSHR THRESHOLD FROM 3 TO 2
CHANGING MSHR THRESHOLD FROM 2 TO 3
CHANGING MSHR THRESHOLD FROM 3 TO 5
CHANGING MSHR THRESHOLD FROM 5 TO 6
CHANGING MSHR THRESHOLD FROM 6 TO 8
CHANGING MSHR THRESHOLD FROM 8 TO 10
CHANGING MSHR THRESHOLD FROM 10 TO 11
OFFSET CHANGED FROM 8 TO 5
CHANGING MSHR THRESHOLD FROM 11 TO 13
CHANGING MSHR THRESHOLD FROM 13 TO 15
CHANGING MSHR THRESHOLD FROM 15 TO 16
CHANGING MSHR THRESHOLD FROM 16 TO 18
CHANGING MSHR THRESHOLD FROM 18 TO 19
CHANGING MSHR THRESHOLD FROM 19 TO 21
CHANGING MSHR THRESHOLD FROM 21 TO 23
CHANGING MSHR THRESHOLD FROM 23 TO 24
CHANGING MSHR THRESHOLD FROM 24 TO 26
CHANGING MSHR THRESHOLD FROM 26 TO 28
CHANGING MSHR THRESHOLD FROM 28 TO 26
CHANGING MSHR THRESHOLD FROM 26 TO 24
CHANGING MSHR THRESHOLD FROM 24 TO 23
CHANGING MSHR THRESHOLD FROM 23 TO 21
CHANGING MSHR THRESHOLD FROM 21 TO 19
CHANGING MSHR THRESHOLD FROM 19 TO 18
CHANGING MSHR THRESHOLD FROM 18 TO 16
CHANGING MSHR THRESHOLD FROM 16 TO 15
CHANGING MSHR THRESHOLD FROM 15 TO 13
CHANGING MSHR THRESHOLD FROM 13 TO 11
CHANGING MSHR THRESHOLD FROM 11 TO 10
CHANGING MSHR THRESHOLD FROM 10 TO 8
CHANGING MSHR THRESHOLD FROM 8 TO 6
CHANGING MSHR THRESHOLD FROM 6 TO 5
CHANGING MSHR THRESHOLD FROM 5 TO 3
CHANGING MSHR THRESHOLD FROM 3 TO 2
CHANGING MSHR THRESHOLD FROM 2 TO 3
CHANGING MSHR THRESHOLD FROM 3 TO 5
CHANGING MSHR THRESHOLD FROM 5 TO 6
CHANGING MSHR THRESHOLD FROM 6 TO 8
CHANGING MSHR THRESHOLD FROM 8 TO 10
CHANGING MSHR THRESHOLD FROM 10 TO 11
CHANGING MSHR THRESHOLD FROM 11 TO 13
CHANGING MSHR THRESHOLD FROM 13 TO 15
CHANGING MSHR THRESHOLD FROM 15 TO 16
CHANGING MSHR THRESHOLD FROM 16 TO 18
CHANGING MSHR THRESHOLD FROM 18 TO 19
CHANGING MSHR THRESHOLD FROM 19 TO 21
CHANGING MSHR THRESHOLD FROM 21 TO 19
CHANGING MSHR THRESHOLD FROM 19 TO 18
CHANGING MSHR THRESHOLD FROM 18 TO 16
CHANGING MSHR THRESHOLD FROM 16 TO 15
CHANGING MSHR THRESHOLD FROM 15 TO 13
CHANGING MSHR THRESHOLD FROM 13 TO 11
CHANGING MSHR THRESHOLD FROM 11 TO 10
CHANGING MSHR THRESHOLD FROM 10 TO 8
CHANGING MSHR THRESHOLD FROM 8 TO 6
CHANGING MSHR THRESHOLD FROM 6 TO 5
CHANGING MSHR THRESHOLD FROM 5 TO 3
CHANGING MSHR THRESHOLD FROM 3 TO 2
OFFSET CHANGED FROM 5 TO 1
CHANGING MSHR THRESHOLD FROM 2 TO 3
CHANGING MSHR THRESHOLD FROM 3 TO 5
CHANGING MSHR THRESHOLD FROM 5 TO 6
CHANGING MSHR THRESHOLD FROM 6 TO 8
CHANGING MSHR THRESHOLD FROM 8 TO 10
CHANGING MSHR THRESHOLD FROM 10 TO 11
CHANGING MSHR THRESHOLD FROM 11 TO 13
CHANGING MSHR THRESHOLD FROM 13 TO 15
CHANGING MSHR THRESHOLD FROM 15 TO 16
CHANGING MSHR THRESHOLD FROM 16 TO 18
CHANGING MSHR THRESHOLD FROM 18 TO 19
CHANGING MSHR THRESHOLD FROM 19 TO 21
CHANGING MSHR THRESHOLD FROM 21 TO 23
CHANGING MSHR THRESHOLD FROM 23 TO 21
CHANGING MSHR THRESHOLD FROM 21 TO 19
CHANGING MSHR THRESHOLD FROM 19 TO 18
CHANGING MSHR THRESHOLD FROM 18 TO 16
CHANGING MSHR THRESHOLD FROM 16 TO 15
CHANGING MSHR THRESHOLD FROM 15 TO 13
CHANGING MSHR THRESHOLD FROM 13 TO 11
CHANGING MSHR THRESHOLD FROM 11 TO 10
CHANGING MSHR THRESHOLD FROM 10 TO 8
CHANGING MSHR THRESHOLD FROM 8 TO 6
CHANGING MSHR THRESHOLD FROM 6 TO 5
CHANGING MSHR THRESHOLD FROM 5 TO 3
CHANGING MSHR THRESHOLD FROM 3 TO 2
CHANGING MSHR THRESHOLD FROM 2 TO 3
CHANGING MSHR THRESHOLD FROM 3 TO 5
CHANGING MSHR THRESHOLD FROM 5 TO 6
CHANGING MSHR THRESHOLD FROM 6 TO 8
CHANGING MSHR THRESHOLD FROM 8 TO 10
CHANGING MSHR THRESHOLD FROM 10 TO 11
CHANGING MSHR THRESHOLD FROM 11 TO 13
CHANGING MSHR THRESHOLD FROM 13 TO 15
CHANGING MSHR THRESHOLD FROM 15 TO 16
CHANGING MSHR THRESHOLD FROM 16 TO 18
CHANGING MSHR THRESHOLD FROM 18 TO 19
OFFSET CHANGED FROM 1 TO 1
CHANGING MSHR THRESHOLD FROM 19 TO 18
CHANGING MSHR THRESHOLD FROM 18 TO 16
CHANGING MSHR THRESHOLD FROM 16 TO 15
CHANGING MSHR THRESHOLD FROM 15 TO 13
CHANGING MSHR THRESHOLD FROM 13 TO 11
CHANGING MSHR THRESHOLD FROM 11 TO 10
CHANGING MSHR THRESHOLD FROM 10 TO 8
CHANGING MSHR THRESHOLD FROM 8 TO 6
CHANGING MSHR THRESHOLD FROM 6 TO 5
CHANGING MSHR THRESHOLD FROM 5 TO 3
CHANGING MSHR THRESHOLD FROM 3 TO 2
CHANGING MSHR THRESHOLD FROM 2 TO 3
CHANGING MSHR THRESHOLD FROM 3 TO 5
CHANGING MSHR THRESHOLD FROM 5 TO 6
CHANGING MSHR THRESHOLD FROM 6 TO 8
CHANGING MSHR THRESHOLD FROM 8 TO 10
CHANGING MSHR THRESHOLD FROM 10 TO 11
CHANGING MSHR THRESHOLD FROM 11 TO 13
CHANGING MSHR THRESHOLD FROM 13 TO 15
CHANGING MSHR THRESHOLD FROM 15 TO 16
CHANGING MSHR THRESHOLD FROM 16 TO 18
CHANGING MSHR THRESHOLD FROM 18 TO 19
CHANGING MSHR THRESHOLD FROM 19 TO 21
CHANGING MSHR THRESHOLD FROM 21 TO 23
CHANGING MSHR THRESHOLD FROM 23 TO 24
CHANGING MSHR THRESHOLD FROM 24 TO 26
CHANGING MSHR THRESHOLD FROM 26 TO 24
CHANGING MSHR THRESHOLD FROM 24 TO 23
CHANGING MSHR THRESHOLD FROM 23 TO 21
CHANGING MSHR THRESHOLD FROM 21 TO 19
CHANGING MSHR THRESHOLD FROM 19 TO 18
CHANGING MSHR THRESHOLD FROM 18 TO 16
CHANGING MSHR THRESHOLD FROM 16 TO 15
CHANGING MSHR THRESHOLD FROM 15 TO 13
CHANGING MSHR THRESHOLD FROM 13 TO 11
CHANGING MSHR THRESHOLD FROM 11 TO 10
CHANGING MSHR THRESHOLD FROM 10 TO 8
CHANGING MSHR THRESHOLD FROM 8 TO 6
CHANGING MSHR THRESHOLD FROM 6 TO 5
CHANGING MSHR THRESHOLD FROM 5 TO 3
CHANGING MSHR THRESHOLD FROM 3 TO 2
OFFSET CHANGED FROM 1 TO 4
CHANGING MSHR THRESHOLD FROM 2 TO 3
CHANGING MSHR THRESHOLD FROM 3 TO 5
CHANGING MSHR THRESHOLD FROM 5 TO 6
CHANGING MSHR THRESHOLD FROM 6 TO 8
CHANGING MSHR THRESHOLD FROM 8 TO 10
CHANGING MSHR THRESHOLD FROM 10 TO 11
CHANGING MSHR THRESHOLD FROM 11 TO 13
CHANGING MSHR THRESHOLD FROM 13 TO 15
CHANGING MSHR THRESHOLD FROM 15 TO 16
CHANGING MSHR THRESHOLD FROM 16 TO 15
CHANGING MSHR THRESHOLD FROM 15 TO 13
CHANGING MSHR THRESHOLD FROM 13 TO 11
CHANGING MSHR THRESHOLD FROM 11 TO 10
CHANGING MSHR THRESHOLD FROM 10 TO 8
CHANGING MSHR THRESHOLD FROM 8 TO 6
CHANGING MSHR THRESHOLD FROM 6 TO 5
CHANGING MSHR THRESHOLD FROM 5 TO 3
CHANGING MSHR THRESHOLD FROM 3 TO 2
CHANGING MSHR THRESHOLD FROM 2 TO 3
CHANGING MSHR THRESHOLD FROM 3 TO 5
CHANGING MSHR THRESHOLD FROM 5 TO 6
CHANGING MSHR THRESHOLD FROM 6 TO 8
CHANGING MSHR THRESHOLD FROM 8 TO 10
CHANGING MSHR THRESHOLD FROM 10 TO 11
CHANGING MSHR THRESHOLD FROM 11 TO 13
CHANGING MSHR THRESHOLD FROM 13 TO 15
CHANGING MSHR THRESHOLD FROM 15 TO 16
CHANGING MSHR THRESHOLD FROM 16 TO 18
CHANGING MSHR THRESHOLD FROM 18 TO 19
CHANGING MSHR THRESHOLD FROM 19 TO 21
CHANGING MSHR THRESHOLD FROM 21 TO 23
CHANGING MSHR THRESHOLD FROM 23 TO 24
CHANGING MSHR THRESHOLD FROM 24 TO 26
CHANGING MSHR THRESHOLD FROM 26 TO 28
CHANGING MSHR THRESHOLD FROM 28 TO 26
CHANGING MSHR THRESHOLD FROM 26 TO 24
CHANGING MSHR THRESHOLD FROM 24 TO 23
CHANGING MSHR THRESHOLD FROM 23 TO 21
CHANGING MSHR THRESHOLD FROM 21 TO 19
CHANGING MSHR THRESHOLD FROM 19 TO 18
CHANGING MSHR THRESHOLD FROM 18 TO 16
CHANGING MSHR THRESHOLD FROM 16 TO 15
CHANGING MSHR THRESHOLD FROM 15 TO 13
CHANGING MSHR THRESHOLD FROM 13 TO 11
CHANGING MSHR THRESHOLD FROM 11 TO 10
CHANGING MSHR THRESHOLD FROM 10 TO 8
CHANGING MSHR THRESHOLD FROM 8 TO 6
CHANGING MSHR THRESHOLD FROM 6 TO 5
CHANGING MSHR THRESHOLD FROM 5 TO 3
CHANGING MSHR THRESHOLD FROM 3 TO 2
OFFSET CHANGED FROM 4 TO 4
CHANGING MSHR THRESHOLD FROM 2 TO 3
CHANGING MSHR THRESHOLD FROM 3 TO 5
CHANGING MSHR THRESHOLD FROM 5 TO 6
CHANGING MSHR THRESHOLD FROM 6 TO 8
CHANGING MSHR THRESHOLD FROM 8 TO 10
CHANGING MSHR THRESHOLD FROM 10 TO 11
CHANGING MSHR THRESHOLD FROM 11 TO 13
CHANGING MSHR THRESHOLD FROM 13 TO 15
CHANGING MSHR THRESHOLD FROM 15 TO 16
CHANGING MSHR THRESHOLD FROM 16 TO 18
CHANGING MSHR THRESHOLD FROM 18 TO 19
CHANGING MSHR THRESHOLD FROM 19 TO 21
CHANGING MSHR THRESHOLD FROM 21 TO 23
CHANGING MSHR THRESHOLD FROM 23 TO 24
CHANGING MSHR THRESHOLD FROM 24 TO 26
CHANGING MSHR THRESHOLD FROM 26 TO 24
CHANGING MSHR THRESHOLD FROM 24 TO 23
CHANGING MSHR THRESHOLD FROM 23 TO 21
CHANGING MSHR THRESHOLD FROM 21 TO 19
CHANGING MSHR THRESHOLD FROM 19 TO 18
CHANGING MSHR THRESHOLD FROM 18 TO 16
CHANGING MSHR THRESHOLD FROM 16 TO 15
CHANGING MSHR THRESHOLD FROM 15 TO 13
CHANGING MSHR THRESHOLD FROM 13 TO 11
CHANGING MSHR THRESHOLD FROM 11 TO 10
CHANGING MSHR THRESHOLD FROM 10 TO 8
CHANGING MSHR THRESHOLD FROM 8 TO 6
CHANGING MSHR THRESHOLD FROM 6 TO 5
CHANGING MSHR THRESHOLD FROM 5 TO 3
CHANGING MSHR THRESHOLD FROM 3 TO 2
CHANGING MSHR THRESHOLD FROM 2 TO 3
CHANGING MSHR THRESHOLD FROM 3 TO 5
CHANGING MSHR THRESHOLD FROM 5 TO 6
CHANGING MSHR THRESHOLD FROM 6 TO 8
CHANGING MSHR THRESHOLD FROM 8 TO 10
CHANGING MSHR THRESHOLD FROM 10 TO 11
CHANGING MSHR THRESHOLD FROM 11 TO 13
CHANGING MSHR THRESHOLD FROM 13 TO 15
OFFSET CHANGED FROM 4 TO 1
CHANGING MSHR THRESHOLD FROM 15 TO 13
CHANGING MSHR THRESHOLD FROM 13 TO 11
CHANGING MSHR THRESHOLD FROM 11 TO 10
CHANGING MSHR THRESHOLD FROM 10 TO 8
CHANGING MSHR THRESHOLD FROM 8 TO 6
CHANGING MSHR THRESHOLD FROM 6 TO 5
CHANGING MSHR THRESHOLD FROM 5 TO 3
CHANGING MSHR THRESHOLD FROM 3 TO 2
CHANGING MSHR THRESHOLD FROM 2 TO 3
CHANGING MSHR THRESHOLD FROM 3 TO 5
CHANGING MSHR THRESHOLD FROM 5 TO 6
CHANGING MSHR THRESHOLD FROM 6 TO 8
OFFSET CHANGED FROM 1 TO 1
OFFSET CHANGED FROM 1 TO 2
CHANGING MSHR THRESHOLD FROM 8 TO 10
CHANGING MSHR THRESHOLD FROM 10 TO 11
CHANGING MSHR THRESHOLD FROM 11 TO 13
CHANGING MSHR THRESHOLD FROM 13 TO 15
CHANGING MSHR THRESHOLD FROM 15 TO 16
CHANGING MSHR THRESHOLD FROM 16 TO 18
CHANGING MSHR THRESHOLD FROM 18 TO 19
CHANGING MSHR THRESHOLD FROM 19 TO 21
CHANGING MSHR THRESHOLD FROM 21 TO 23
CHANGING MSHR THRESHOLD FROM 23 TO 24
CHANGING MSHR THRESHOLD FROM 24 TO 26
CHANGING MSHR THRESHOLD FROM 26 TO 28
CHANGING MSHR THRESHOLD FROM 28 TO 26
CHANGING MSHR THRESHOLD FROM 26 TO 24
CHANGING MSHR THRESHOLD FROM 24 TO 23
CHANGING MSHR THRESHOLD FROM 23 TO 21
CHANGING MSHR THRESHOLD FROM 21 TO 19
CHANGING MSHR THRESHOLD FROM 19 TO 18
CHANGING MSHR THRESHOLD FROM 18 TO 16
CHANGING MSHR THRESHOLD FROM 16 TO 15
CHANGING MSHR THRESHOLD FROM 15 TO 13
CHANGING MSHR THRESHOLD FROM 13 TO 11
CHANGING MSHR THRESHOLD FROM 11 TO 10
CHANGING MSHR THRESHOLD FROM 10 TO 8
CHANGING MSHR THRESHOLD FROM 8 TO 6
CHANGING MSHR THRESHOLD FROM 6 TO 5
CHANGING MSHR THRESHOLD FROM 5 TO 3
CHANGING MSHR THRESHOLD FROM 3 TO 2
OFFSET CHANGED FROM 2 TO 2
CHANGING MSHR THRESHOLD FROM 2 TO 3
CHANGING MSHR THRESHOLD FROM 3 TO 5
CHANGING MSHR THRESHOLD FROM 5 TO 6
CHANGING MSHR THRESHOLD FROM 6 TO 8
CHANGING MSHR THRESHOLD FROM 8 TO 10
CHANGING MSHR THRESHOLD FROM 10 TO 11
CHANGING MSHR THRESHOLD FROM 11 TO 13
CHANGING MSHR THRESHOLD FROM 13 TO 15
CHANGING MSHR THRESHOLD FROM 15 TO 16
CHANGING MSHR THRESHOLD FROM 16 TO 18
CHANGING MSHR THRESHOLD FROM 18 TO 19
CHANGING MSHR THRESHOLD FROM 19 TO 18
CHANGING MSHR THRESHOLD FROM 18 TO 16
CHANGING MSHR THRESHOLD FROM 16 TO 15
CHANGING MSHR THRESHOLD FROM 15 TO 13
CHANGING MSHR THRESHOLD FROM 13 TO 11
CHANGING MSHR THRESHOLD FROM 11 TO 10
CHANGING MSHR THRESHOLD FROM 10 TO 8
CHANGING MSHR THRESHOLD FROM 8 TO 6
CHANGING MSHR THRESHOLD FROM 6 TO 5
CHANGING MSHR THRESHOLD FROM 5 TO 3
CHANGING MSHR THRESHOLD FROM 3 TO 2
CHANGING MSHR THRESHOLD FROM 2 TO 3
OFFSET CHANGED FROM 2 TO 4
CHANGING MSHR THRESHOLD FROM 3 TO 5
CHANGING MSHR THRESHOLD FROM 5 TO 6
CHANGING MSHR THRESHOLD FROM 6 TO 8
CHANGING MSHR THRESHOLD FROM 8 TO 10
CHANGING MSHR THRESHOLD FROM 10 TO 11
CHANGING MSHR THRESHOLD FROM 11 TO 13
CHANGING MSHR THRESHOLD FROM 13 TO 15
CHANGING MSHR THRESHOLD FROM 15 TO 16
CHANGING MSHR THRESHOLD FROM 16 TO 15
CHANGING MSHR THRESHOLD FROM 15 TO 13
CHANGING MSHR THRESHOLD FROM 13 TO 11
CHANGING MSHR THRESHOLD FROM 11 TO 10
CHANGING MSHR THRESHOLD FROM 10 TO 8
CHANGING MSHR THRESHOLD FROM 8 TO 6
CHANGING MSHR THRESHOLD FROM 6 TO 5
CHANGING MSHR THRESHOLD FROM 5 TO 3
CHANGING MSHR THRESHOLD FROM 3 TO 2
CHANGING MSHR THRESHOLD FROM 2 TO 3
CHANGING MSHR THRESHOLD FROM 3 TO 5
CHANGING MSHR THRESHOLD FROM 5 TO 6
CHANGING MSHR THRESHOLD FROM 6 TO 8
CHANGING MSHR THRESHOLD FROM 8 TO 10
CHANGING MSHR THRESHOLD FROM 10 TO 11
CHANGING MSHR THRESHOLD FROM 11 TO 13
CHANGING MSHR THRESHOLD FROM 13 TO 15
CHANGING MSHR THRESHOLD FROM 15 TO 16
CHANGING MSHR THRESHOLD FROM 16 TO 18
CHANGING MSHR THRESHOLD FROM 18 TO 19
CHANGING MSHR THRESHOLD FROM 19 TO 21
CHANGING MSHR THRESHOLD FROM 21 TO 23
CHANGING MSHR THRESHOLD FROM 23 TO 24
CHANGING MSHR THRESHOLD FROM 24 TO 26
CHANGING MSHR THRESHOLD FROM 26 TO 28
CHANGING MSHR THRESHOLD FROM 28 TO 26
CHANGING MSHR THRESHOLD FROM 26 TO 24
CHANGING MSHR THRESHOLD FROM 24 TO 23
CHANGING MSHR THRESHOLD FROM 23 TO 21
CHANGING MSHR THRESHOLD FROM 21 TO 19
CHANGING MSHR THRESHOLD FROM 19 TO 18
CHANGING MSHR THRESHOLD FROM 18 TO 16
CHANGING MSHR THRESHOLD FROM 16 TO 15
CHANGING MSHR THRESHOLD FROM 15 TO 13
CHANGING MSHR THRESHOLD FROM 13 TO 11
CHANGING MSHR THRESHOLD FROM 11 TO 10
CHANGING MSHR THRESHOLD FROM 10 TO 8
CHANGING MSHR THRESHOLD FROM 8 TO 6
CHANGING MSHR THRESHOLD FROM 6 TO 5
CHANGING MSHR THRESHOLD FROM 5 TO 3
CHANGING MSHR THRESHOLD FROM 3 TO 2
OFFSET CHANGED FROM 4 TO 2
CHANGING MSHR THRESHOLD FROM 2 TO 3
CHANGING MSHR THRESHOLD FROM 3 TO 5
CHANGING MSHR THRESHOLD FROM 5 TO 6
CHANGING MSHR THRESHOLD FROM 6 TO 8
CHANGING MSHR THRESHOLD FROM 8 TO 10
CHANGING MSHR THRESHOLD FROM 10 TO 11
CHANGING MSHR THRESHOLD FROM 11 TO 13
CHANGING MSHR THRESHOLD FROM 13 TO 15
CHANGING MSHR THRESHOLD FROM 15 TO 16
CHANGING MSHR THRESHOLD FROM 16 TO 18
CHANGING MSHR THRESHOLD FROM 18 TO 19
CHANGING MSHR THRESHOLD FROM 19 TO 21
CHANGING MSHR THRESHOLD FROM 21 TO 23
CHANGING MSHR THRESHOLD FROM 23 TO 24
CHANGING MSHR THRESHOLD FROM 24 TO 26
CHANGING MSHR THRESHOLD FROM 26 TO 28
OFFSET CHANGED FROM 2 TO 24
OFFSET CHANGED FROM 24 TO 18
OFFSET CHANGED FROM 18 TO 6
Heartbeat CPU 0 instructions: 10000002 cycles: 3714290 heartbeat IPC: 2.69231 cumulative IPC: 2.69231 (Simulation time: 0 hr 0 min 26 sec) 
OFFSET CHANGED FROM 6 TO 16
CHANGING MSHR THRESHOLD FROM 28 TO 26
CHANGING MSHR THRESHOLD FROM 26 TO 24
CHANGING MSHR THRESHOLD FROM 24 TO 23
CHANGING MSHR THRESHOLD FROM 23 TO 21
CHANGING MSHR THRESHOLD FROM 21 TO 19
CHANGING MSHR THRESHOLD FROM 19 TO 18
CHANGING MSHR THRESHOLD FROM 18 TO 16
CHANGING MSHR THRESHOLD FROM 16 TO 15
CHANGING MSHR THRESHOLD FROM 15 TO 13
CHANGING MSHR THRESHOLD FROM 13 TO 11
CHANGING MSHR THRESHOLD FROM 11 TO 10
CHANGING MSHR THRESHOLD FROM 10 TO 8
CHANGING MSHR THRESHOLD FROM 8 TO 6
CHANGING MSHR THRESHOLD FROM 6 TO 5
CHANGING MSHR THRESHOLD FROM 5 TO 3
CHANGING MSHR THRESHOLD FROM 3 TO 2
CHANGING MSHR THRESHOLD FROM 2 TO 3
CHANGING MSHR THRESHOLD FROM 3 TO 5
CHANGING MSHR THRESHOLD FROM 5 TO 6
CHANGING MSHR THRESHOLD FROM 6 TO 8
CHANGING MSHR THRESHOLD FROM 8 TO 10
CHANGING MSHR THRESHOLD FROM 10 TO 11
OFFSET CHANGED FROM 16 TO 8
CHANGING MSHR THRESHOLD FROM 11 TO 10
CHANGING MSHR THRESHOLD FROM 10 TO 8
CHANGING MSHR THRESHOLD FROM 8 TO 6
CHANGING MSHR THRESHOLD FROM 6 TO 5
CHANGING MSHR THRESHOLD FROM 5 TO 3
CHANGING MSHR THRESHOLD FROM 3 TO 2
CHANGING MSHR THRESHOLD FROM 2 TO 3
CHANGING MSHR THRESHOLD FROM 3 TO 5
CHANGING MSHR THRESHOLD FROM 5 TO 6
CHANGING MSHR THRESHOLD FROM 6 TO 8
CHANGING MSHR THRESHOLD FROM 8 TO 10
CHANGING MSHR THRESHOLD FROM 10 TO 11
CHANGING MSHR THRESHOLD FROM 11 TO 13
CHANGING MSHR THRESHOLD FROM 13 TO 15
CHANGING MSHR THRESHOLD FROM 15 TO 16
CHANGING MSHR THRESHOLD FROM 16 TO 18
CHANGING MSHR THRESHOLD FROM 18 TO 19
CHANGING MSHR THRESHOLD FROM 19 TO 21
CHANGING MSHR THRESHOLD FROM 21 TO 23
CHANGING MSHR THRESHOLD FROM 23 TO 24
CHANGING MSHR THRESHOLD FROM 24 TO 26
CHANGING MSHR THRESHOLD FROM 26 TO 28
CHANGING MSHR THRESHOLD FROM 28 TO 26
CHANGING MSHR THRESHOLD FROM 26 TO 24
CHANGING MSHR THRESHOLD FROM 24 TO 23
CHANGING MSHR THRESHOLD FROM 23 TO 21
CHANGING MSHR THRESHOLD FROM 21 TO 19
CHANGING MSHR THRESHOLD FROM 19 TO 18
CHANGING MSHR THRESHOLD FROM 18 TO 16
CHANGING MSHR THRESHOLD FROM 16 TO 15
CHANGING MSHR THRESHOLD FROM 15 TO 13
CHANGING MSHR THRESHOLD FROM 13 TO 11
CHANGING MSHR THRESHOLD FROM 11 TO 10
CHANGING MSHR THRESHOLD FROM 10 TO 8
CHANGING MSHR THRESHOLD FROM 8 TO 6
CHANGING MSHR THRESHOLD FROM 6 TO 5
CHANGING MSHR THRESHOLD FROM 5 TO 3
CHANGING MSHR THRESHOLD FROM 3 TO 2
CHANGING MSHR THRESHOLD FROM 2 TO 3
CHANGING MSHR THRESHOLD FROM 3 TO 5
CHANGING MSHR THRESHOLD FROM 5 TO 6
CHANGING MSHR THRESHOLD FROM 6 TO 8
CHANGING MSHR THRESHOLD FROM 8 TO 10
CHANGING MSHR THRESHOLD FROM 10 TO 11
CHANGING MSHR THRESHOLD FROM 11 TO 13
CHANGING MSHR THRESHOLD FROM 13 TO 15
CHANGING MSHR THRESHOLD FROM 15 TO 16
CHANGING MSHR THRESHOLD FROM 16 TO 18
CHANGING MSHR THRESHOLD FROM 18 TO 19
CHANGING MSHR THRESHOLD FROM 19 TO 21
CHANGING MSHR THRESHOLD FROM 21 TO 23
CHANGING MSHR THRESHOLD FROM 23 TO 24
CHANGING MSHR THRESHOLD FROM 24 TO 26
CHANGING MSHR THRESHOLD FROM 26 TO 24
CHANGING MSHR THRESHOLD FROM 24 TO 23
CHANGING MSHR THRESHOLD FROM 23 TO 21
CHANGING MSHR THRESHOLD FROM 21 TO 19
CHANGING MSHR THRESHOLD FROM 19 TO 18
CHANGING MSHR THRESHOLD FROM 18 TO 16
CHANGING MSHR THRESHOLD FROM 16 TO 15
CHANGING MSHR THRESHOLD FROM 15 TO 13
CHANGING MSHR THRESHOLD FROM 13 TO 11
CHANGING MSHR THRESHOLD FROM 11 TO 10
CHANGING MSHR THRESHOLD FROM 10 TO 8
CHANGING MSHR THRESHOLD FROM 8 TO 6
CHANGING MSHR THRESHOLD FROM 6 TO 5
CHANGING MSHR THRESHOLD FROM 5 TO 3
CHANGING MSHR THRESHOLD FROM 3 TO 2
OFFSET CHANGED FROM 8 TO 1
CHANGING MSHR THRESHOLD FROM 2 TO 3
CHANGING MSHR THRESHOLD FROM 3 TO 5
CHANGING MSHR THRESHOLD FROM 5 TO 6
CHANGING MSHR THRESHOLD FROM 6 TO 8
CHANGING MSHR THRESHOLD FROM 8 TO 10
CHANGING MSHR THRESHOLD FROM 10 TO 11
CHANGING MSHR THRESHOLD FROM 11 TO 13
CHANGING MSHR THRESHOLD FROM 13 TO 15
CHANGING MSHR THRESHOLD FROM 15 TO 13
CHANGING MSHR THRESHOLD FROM 13 TO 11
CHANGING MSHR THRESHOLD FROM 11 TO 10
CHANGING MSHR THRESHOLD FROM 10 TO 8
CHANGING MSHR THRESHOLD FROM 8 TO 6
CHANGING MSHR THRESHOLD FROM 6 TO 5
CHANGING MSHR THRESHOLD FROM 5 TO 3
CHANGING MSHR THRESHOLD FROM 3 TO 2
OFFSET CHANGED FROM 1 TO 5
NO PREFETCH REQUEST BECAUSE PREFETCH SCORE 5 IS NOT GREATER THAN 20 (MSHR OCC = 2)
NO PREFETCH REQUEST BECAUSE PREFETCH SCORE 5 IS NOT GREATER THAN 20 (MSHR OCC = 2)
NO PREFETCH REQUEST BECAUSE PREFETCH SCORE 5 IS NOT GREATER THAN 20 (MSHR OCC = 2)
NO PREFETCH REQUEST BECAUSE PREFETCH SCORE 5 IS NOT GREATER THAN 20 (MSHR OCC = 2)
CHANGING MSHR THRESHOLD FROM 2 TO 3
CHANGING MSHR THRESHOLD FROM 3 TO 5
CHANGING MSHR THRESHOLD FROM 5 TO 6
CHANGING MSHR THRESHOLD FROM 6 TO 8
CHANGING MSHR THRESHOLD FROM 8 TO 10
CHANGING MSHR THRESHOLD FROM 10 TO 11
CHANGING MSHR THRESHOLD FROM 11 TO 13
CHANGING MSHR THRESHOLD FROM 13 TO 15
CHANGING MSHR THRESHOLD FROM 15 TO 16
CHANGING MSHR THRESHOLD FROM 16 TO 18
CHANGING MSHR THRESHOLD FROM 18 TO 19
CHANGING MSHR THRESHOLD FROM 19 TO 21
CHANGING MSHR THRESHOLD FROM 21 TO 23
CHANGING MSHR THRESHOLD FROM 23 TO 24
CHANGING MSHR THRESHOLD FROM 24 TO 26
CHANGING MSHR THRESHOLD FROM 26 TO 28
CHANGING MSHR THRESHOLD FROM 28 TO 26
CHANGING MSHR THRESHOLD FROM 26 TO 24
CHANGING MSHR THRESHOLD FROM 24 TO 23
CHANGING MSHR THRESHOLD FROM 23 TO 21
CHANGING MSHR THRESHOLD FROM 21 TO 19
CHANGING MSHR THRESHOLD FROM 19 TO 18
CHANGING MSHR THRESHOLD FROM 18 TO 16
CHANGING MSHR THRESHOLD FROM 16 TO 15
CHANGING MSHR THRESHOLD FROM 15 TO 13
CHANGING MSHR THRESHOLD FROM 13 TO 11
CHANGING MSHR THRESHOLD FROM 11 TO 10
CHANGING MSHR THRESHOLD FROM 10 TO 8
CHANGING MSHR THRESHOLD FROM 8 TO 6
CHANGING MSHR THRESHOLD FROM 6 TO 5
CHANGING MSHR THRESHOLD FROM 5 TO 3
CHANGING MSHR THRESHOLD FROM 3 TO 2
CHANGING MSHR THRESHOLD FROM 2 TO 3
CHANGING MSHR THRESHOLD FROM 3 TO 5
CHANGING MSHR THRESHOLD FROM 5 TO 6
CHANGING MSHR THRESHOLD FROM 6 TO 8
CHANGING MSHR THRESHOLD FROM 8 TO 10
OFFSET CHANGED FROM 5 TO 1
CHANGING MSHR THRESHOLD FROM 10 TO 11
CHANGING MSHR THRESHOLD FROM 11 TO 13
CHANGING MSHR THRESHOLD FROM 13 TO 11
CHANGING MSHR THRESHOLD FROM 11 TO 10
CHANGING MSHR THRESHOLD FROM 10 TO 8
CHANGING MSHR THRESHOLD FROM 8 TO 6
CHANGING MSHR THRESHOLD FROM 6 TO 5
CHANGING MSHR THRESHOLD FROM 5 TO 3
CHANGING MSHR THRESHOLD FROM 3 TO 2
CHANGING MSHR THRESHOLD FROM 2 TO 3
CHANGING MSHR THRESHOLD FROM 3 TO 5
CHANGING MSHR THRESHOLD FROM 5 TO 6
CHANGING MSHR THRESHOLD FROM 6 TO 8
CHANGING MSHR THRESHOLD FROM 8 TO 10
CHANGING MSHR THRESHOLD FROM 10 TO 11
CHANGING MSHR THRESHOLD FROM 11 TO 13
CHANGING MSHR THRESHOLD FROM 13 TO 15
CHANGING MSHR THRESHOLD FROM 15 TO 16
CHANGING MSHR THRESHOLD FROM 16 TO 18
CHANGING MSHR THRESHOLD FROM 18 TO 19
CHANGING MSHR THRESHOLD FROM 19 TO 21
CHANGING MSHR THRESHOLD FROM 21 TO 23
CHANGING MSHR THRESHOLD FROM 23 TO 24
CHANGING MSHR THRESHOLD FROM 24 TO 23
CHANGING MSHR THRESHOLD FROM 23 TO 21
CHANGING MSHR THRESHOLD FROM 21 TO 19
CHANGING MSHR THRESHOLD FROM 19 TO 18
CHANGING MSHR THRESHOLD FROM 18 TO 16
CHANGING MSHR THRESHOLD FROM 16 TO 15
CHANGING MSHR THRESHOLD FROM 15 TO 13
CHANGING MSHR THRESHOLD FROM 13 TO 11
CHANGING MSHR THRESHOLD FROM 11 TO 10
CHANGING MSHR THRESHOLD FROM 10 TO 8
CHANGING MSHR THRESHOLD FROM 8 TO 6
CHANGING MSHR THRESHOLD FROM 6 TO 5
CHANGING MSHR THRESHOLD FROM 5 TO 3
CHANGING MSHR THRESHOLD FROM 3 TO 2
OFFSET CHANGED FROM 1 TO 3
CHANGING MSHR THRESHOLD FROM 2 TO 3
CHANGING MSHR THRESHOLD FROM 3 TO 5
CHANGING MSHR THRESHOLD FROM 5 TO 6
CHANGING MSHR THRESHOLD FROM 6 TO 8
CHANGING MSHR THRESHOLD FROM 8 TO 10
CHANGING MSHR THRESHOLD FROM 10 TO 11
CHANGING MSHR THRESHOLD FROM 11 TO 13
CHANGING MSHR THRESHOLD FROM 13 TO 15
CHANGING MSHR THRESHOLD FROM 15 TO 16
CHANGING MSHR THRESHOLD FROM 16 TO 18
CHANGING MSHR THRESHOLD FROM 18 TO 16
CHANGING MSHR THRESHOLD FROM 16 TO 15
CHANGING MSHR THRESHOLD FROM 15 TO 13
CHANGING MSHR THRESHOLD FROM 13 TO 11
CHANGING MSHR THRESHOLD FROM 11 TO 10
CHANGING MSHR THRESHOLD FROM 10 TO 8
CHANGING MSHR THRESHOLD FROM 8 TO 6
CHANGING MSHR THRESHOLD FROM 6 TO 5
CHANGING MSHR THRESHOLD FROM 5 TO 3
CHANGING MSHR THRESHOLD FROM 3 TO 2
OFFSET CHANGED FROM 3 TO 2
CHANGING MSHR THRESHOLD FROM 2 TO 3
CHANGING MSHR THRESHOLD FROM 3 TO 5
CHANGING MSHR THRESHOLD FROM 5 TO 6
CHANGING MSHR THRESHOLD FROM 6 TO 8
CHANGING MSHR THRESHOLD FROM 8 TO 10
CHANGING MSHR THRESHOLD FROM 10 TO 11
CHANGING MSHR THRESHOLD FROM 11 TO 13
CHANGING MSHR THRESHOLD FROM 13 TO 15
CHANGING MSHR THRESHOLD FROM 15 TO 16
CHANGING MSHR THRESHOLD FROM 16 TO 18
CHANGING MSHR THRESHOLD FROM 18 TO 19
CHANGING MSHR THRESHOLD FROM 19 TO 21
CHANGING MSHR THRESHOLD FROM 21 TO 23
CHANGING MSHR THRESHOLD FROM 23 TO 24
CHANGING MSHR THRESHOLD FROM 24 TO 26
CHANGING MSHR THRESHOLD FROM 26 TO 28
CHANGING MSHR THRESHOLD FROM 28 TO 26
CHANGING MSHR THRESHOLD FROM 26 TO 24
CHANGING MSHR THRESHOLD FROM 24 TO 23
CHANGING MSHR THRESHOLD FROM 23 TO 21
CHANGING MSHR THRESHOLD FROM 21 TO 19
CHANGING MSHR THRESHOLD FROM 19 TO 18
CHANGING MSHR THRESHOLD FROM 18 TO 16
CHANGING MSHR THRESHOLD FROM 16 TO 15
CHANGING MSHR THRESHOLD FROM 15 TO 13
CHANGING MSHR THRESHOLD FROM 13 TO 11
CHANGING MSHR THRESHOLD FROM 11 TO 10
CHANGING MSHR THRESHOLD FROM 10 TO 8
CHANGING MSHR THRESHOLD FROM 8 TO 6
CHANGING MSHR THRESHOLD FROM 6 TO 5
CHANGING MSHR THRESHOLD FROM 5 TO 3
CHANGING MSHR THRESHOLD FROM 3 TO 2
CHANGING MSHR THRESHOLD FROM 2 TO 3
CHANGING MSHR THRESHOLD FROM 3 TO 5
CHANGING MSHR THRESHOLD FROM 5 TO 6
CHANGING MSHR THRESHOLD FROM 6 TO 8
CHANGING MSHR THRESHOLD FROM 8 TO 10
CHANGING MSHR THRESHOLD FROM 10 TO 11
CHANGING MSHR THRESHOLD FROM 11 TO 13
OFFSET CHANGED FROM 2 TO 3
CHANGING MSHR THRESHOLD FROM 13 TO 11
CHANGING MSHR THRESHOLD FROM 11 TO 10
CHANGING MSHR THRESHOLD FROM 10 TO 8
CHANGING MSHR THRESHOLD FROM 8 TO 6
CHANGING MSHR THRESHOLD FROM 6 TO 5
CHANGING MSHR THRESHOLD FROM 5 TO 3
CHANGING MSHR THRESHOLD FROM 3 TO 2
CHANGING MSHR THRESHOLD FROM 2 TO 3
CHANGING MSHR THRESHOLD FROM 3 TO 5
CHANGING MSHR THRESHOLD FROM 5 TO 6
CHANGING MSHR THRESHOLD FROM 6 TO 8
CHANGING MSHR THRESHOLD FROM 8 TO 10
OFFSET CHANGED FROM 3 TO 3
CHANGING MSHR THRESHOLD FROM 10 TO 11
CHANGING MSHR THRESHOLD FROM 11 TO 13
CHANGING MSHR THRESHOLD FROM 13 TO 11
CHANGING MSHR THRESHOLD FROM 11 TO 10
CHANGING MSHR THRESHOLD FROM 10 TO 8
CHANGING MSHR THRESHOLD FROM 8 TO 6
CHANGING MSHR THRESHOLD FROM 6 TO 5
CHANGING MSHR THRESHOLD FROM 5 TO 3
CHANGING MSHR THRESHOLD FROM 3 TO 2
CHANGING MSHR THRESHOLD FROM 2 TO 3
CHANGING MSHR THRESHOLD FROM 3 TO 5
CHANGING MSHR THRESHOLD FROM 5 TO 6
CHANGING MSHR THRESHOLD FROM 6 TO 8
CHANGING MSHR THRESHOLD FROM 8 TO 10
OFFSET CHANGED FROM 3 TO 4
OFFSET CHANGED FROM 4 TO 3
OFFSET CHANGED FROM 3 TO 3
CHANGING MSHR THRESHOLD FROM 10 TO 8
CHANGING MSHR THRESHOLD FROM 8 TO 6
CHANGING MSHR THRESHOLD FROM 6 TO 5
CHANGING MSHR THRESHOLD FROM 5 TO 3
CHANGING MSHR THRESHOLD FROM 3 TO 2
CHANGING MSHR THRESHOLD FROM 2 TO 3
CHANGING MSHR THRESHOLD FROM 3 TO 5
CHANGING MSHR THRESHOLD FROM 5 TO 6
CHANGING MSHR THRESHOLD FROM 6 TO 8
CHANGING MSHR THRESHOLD FROM 8 TO 10
CHANGING MSHR THRESHOLD FROM 10 TO 11
CHANGING MSHR THRESHOLD FROM 11 TO 13
CHANGING MSHR THRESHOLD FROM 13 TO 15
CHANGING MSHR THRESHOLD FROM 15 TO 16
CHANGING MSHR THRESHOLD FROM 16 TO 18
CHANGING MSHR THRESHOLD FROM 18 TO 19
CHANGING MSHR THRESHOLD FROM 19 TO 21
CHANGING MSHR THRESHOLD FROM 21 TO 23
CHANGING MSHR THRESHOLD FROM 23 TO 21
CHANGING MSHR THRESHOLD FROM 21 TO 19
CHANGING MSHR THRESHOLD FROM 19 TO 18
CHANGING MSHR THRESHOLD FROM 18 TO 16
CHANGING MSHR THRESHOLD FROM 16 TO 15
CHANGING MSHR THRESHOLD FROM 15 TO 13
CHANGING MSHR THRESHOLD FROM 13 TO 11
CHANGING MSHR THRESHOLD FROM 11 TO 10
CHANGING MSHR THRESHOLD FROM 10 TO 8
CHANGING MSHR THRESHOLD FROM 8 TO 6
CHANGING MSHR THRESHOLD FROM 6 TO 5
CHANGING MSHR THRESHOLD FROM 5 TO 3
CHANGING MSHR THRESHOLD FROM 3 TO 2
NO PREFETCH REQUEST BECAUSE PREFETCH SCORE 7 IS NOT GREATER THAN 20 (MSHR OCC = 2)
CHANGING MSHR THRESHOLD FROM 2 TO 3
CHANGING MSHR THRESHOLD FROM 3 TO 5
CHANGING MSHR THRESHOLD FROM 5 TO 6
CHANGING MSHR THRESHOLD FROM 6 TO 8
CHANGING MSHR THRESHOLD FROM 8 TO 10
CHANGING MSHR THRESHOLD FROM 10 TO 11
CHANGING MSHR THRESHOLD FROM 11 TO 13
CHANGING MSHR THRESHOLD FROM 13 TO 15
CHANGING MSHR THRESHOLD FROM 15 TO 16
CHANGING MSHR THRESHOLD FROM 16 TO 18
CHANGING MSHR THRESHOLD FROM 18 TO 19
CHANGING MSHR THRESHOLD FROM 19 TO 21
CHANGING MSHR THRESHOLD FROM 21 TO 23
CHANGING MSHR THRESHOLD FROM 23 TO 24
CHANGING MSHR THRESHOLD FROM 24 TO 26
CHANGING MSHR THRESHOLD FROM 26 TO 28
OFFSET CHANGED FROM 3 TO 1
OFFSET CHANGED FROM 1 TO 1
OFFSET CHANGED FROM 1 TO -14
OFFSET CHANGED FROM -14 TO 13
CHANGING MSHR THRESHOLD FROM 28 TO 26
CHANGING MSHR THRESHOLD FROM 26 TO 24
CHANGING MSHR THRESHOLD FROM 24 TO 23
CHANGING MSHR THRESHOLD FROM 23 TO 21
CHANGING MSHR THRESHOLD FROM 21 TO 19
CHANGING MSHR THRESHOLD FROM 19 TO 18
CHANGING MSHR THRESHOLD FROM 18 TO 16
CHANGING MSHR THRESHOLD FROM 16 TO 15
CHANGING MSHR THRESHOLD FROM 15 TO 13
CHANGING MSHR THRESHOLD FROM 13 TO 11
CHANGING MSHR THRESHOLD FROM 11 TO 10
CHANGING MSHR THRESHOLD FROM 10 TO 8
CHANGING MSHR THRESHOLD FROM 8 TO 6
CHANGING MSHR THRESHOLD FROM 6 TO 5
CHANGING MSHR THRESHOLD FROM 5 TO 3
CHANGING MSHR THRESHOLD FROM 3 TO 2
OFFSET CHANGED FROM 13 TO 7
CHANGING MSHR THRESHOLD FROM 2 TO 3
CHANGING MSHR THRESHOLD FROM 3 TO 5
CHANGING MSHR THRESHOLD FROM 5 TO 6
CHANGING MSHR THRESHOLD FROM 6 TO 8
CHANGING MSHR THRESHOLD FROM 8 TO 10
CHANGING MSHR THRESHOLD FROM 10 TO 11
CHANGING MSHR THRESHOLD FROM 11 TO 13
CHANGING MSHR THRESHOLD FROM 13 TO 15
CHANGING MSHR THRESHOLD FROM 15 TO 16
CHANGING MSHR THRESHOLD FROM 16 TO 18
CHANGING MSHR THRESHOLD FROM 18 TO 19
CHANGING MSHR THRESHOLD FROM 19 TO 18
CHANGING MSHR THRESHOLD FROM 18 TO 16
CHANGING MSHR THRESHOLD FROM 16 TO 15
CHANGING MSHR THRESHOLD FROM 15 TO 13
CHANGING MSHR THRESHOLD FROM 13 TO 11
CHANGING MSHR THRESHOLD FROM 11 TO 10
CHANGING MSHR THRESHOLD FROM 10 TO 8
CHANGING MSHR THRESHOLD FROM 8 TO 6
CHANGING MSHR THRESHOLD FROM 6 TO 5
CHANGING MSHR THRESHOLD FROM 5 TO 3
CHANGING MSHR THRESHOLD FROM 3 TO 2
CHANGING MSHR THRESHOLD FROM 2 TO 3
CHANGING MSHR THRESHOLD FROM 3 TO 5
CHANGING MSHR THRESHOLD FROM 5 TO 6
CHANGING MSHR THRESHOLD FROM 6 TO 8
CHANGING MSHR THRESHOLD FROM 8 TO 10
CHANGING MSHR THRESHOLD FROM 10 TO 11
CHANGING MSHR THRESHOLD FROM 11 TO 13
CHANGING MSHR THRESHOLD FROM 13 TO 15
OFFSET CHANGED FROM 7 TO 3
CHANGING MSHR THRESHOLD FROM 15 TO 13
CHANGING MSHR THRESHOLD FROM 13 TO 11
CHANGING MSHR THRESHOLD FROM 11 TO 10
CHANGING MSHR THRESHOLD FROM 10 TO 8
CHANGING MSHR THRESHOLD FROM 8 TO 6
CHANGING MSHR THRESHOLD FROM 6 TO 5
CHANGING MSHR THRESHOLD FROM 5 TO 3
CHANGING MSHR THRESHOLD FROM 3 TO 2
CHANGING MSHR THRESHOLD FROM 2 TO 3
CHANGING MSHR THRESHOLD FROM 3 TO 5
CHANGING MSHR THRESHOLD FROM 5 TO 6
CHANGING MSHR THRESHOLD FROM 6 TO 8
CHANGING MSHR THRESHOLD FROM 8 TO 10
CHANGING MSHR THRESHOLD FROM 10 TO 11
CHANGING MSHR THRESHOLD FROM 11 TO 13
OFFSET CHANGED FROM 3 TO 1
CHANGING MSHR THRESHOLD FROM 13 TO 11
CHANGING MSHR THRESHOLD FROM 11 TO 10
CHANGING MSHR THRESHOLD FROM 10 TO 8
CHANGING MSHR THRESHOLD FROM 8 TO 6
CHANGING MSHR THRESHOLD FROM 6 TO 5
CHANGING MSHR THRESHOLD FROM 5 TO 3
CHANGING MSHR THRESHOLD FROM 3 TO 2
CHANGING MSHR THRESHOLD FROM 2 TO 3
CHANGING MSHR THRESHOLD FROM 3 TO 5
CHANGING MSHR THRESHOLD FROM 5 TO 6
CHANGING MSHR THRESHOLD FROM 6 TO 8
CHANGING MSHR THRESHOLD FROM 8 TO 10
CHANGING MSHR THRESHOLD FROM 10 TO 11
CHANGING MSHR THRESHOLD FROM 11 TO 13
CHANGING MSHR THRESHOLD FROM 13 TO 15
CHANGING MSHR THRESHOLD FROM 15 TO 16
CHANGING MSHR THRESHOLD FROM 16 TO 18
CHANGING MSHR THRESHOLD FROM 18 TO 19
CHANGING MSHR THRESHOLD FROM 19 TO 21
CHANGING MSHR THRESHOLD FROM 21 TO 23
CHANGING MSHR THRESHOLD FROM 23 TO 21
CHANGING MSHR THRESHOLD FROM 21 TO 19
CHANGING MSHR THRESHOLD FROM 19 TO 18
CHANGING MSHR THRESHOLD FROM 18 TO 16
CHANGING MSHR THRESHOLD FROM 16 TO 15
CHANGING MSHR THRESHOLD FROM 15 TO 13
CHANGING MSHR THRESHOLD FROM 13 TO 11
CHANGING MSHR THRESHOLD FROM 11 TO 10
CHANGING MSHR THRESHOLD FROM 10 TO 8
CHANGING MSHR THRESHOLD FROM 8 TO 6
CHANGING MSHR THRESHOLD FROM 6 TO 5
CHANGING MSHR THRESHOLD FROM 5 TO 3
CHANGING MSHR THRESHOLD FROM 3 TO 2
CHANGING MSHR THRESHOLD FROM 2 TO 3
CHANGING MSHR THRESHOLD FROM 3 TO 5
CHANGING MSHR THRESHOLD FROM 5 TO 6
CHANGING MSHR THRESHOLD FROM 6 TO 8
CHANGING MSHR THRESHOLD FROM 8 TO 10
CHANGING MSHR THRESHOLD FROM 10 TO 11
CHANGING MSHR THRESHOLD FROM 11 TO 13
CHANGING MSHR THRESHOLD FROM 13 TO 15
CHANGING MSHR THRESHOLD FROM 15 TO 16
CHANGING MSHR THRESHOLD FROM 16 TO 18
CHANGING MSHR THRESHOLD FROM 18 TO 19
OFFSET CHANGED FROM 1 TO 3
CHANGING MSHR THRESHOLD FROM 19 TO 18
CHANGING MSHR THRESHOLD FROM 18 TO 16
CHANGING MSHR THRESHOLD FROM 16 TO 15
CHANGING MSHR THRESHOLD FROM 15 TO 13
CHANGING MSHR THRESHOLD FROM 13 TO 11
CHANGING MSHR THRESHOLD FROM 11 TO 10
CHANGING MSHR THRESHOLD FROM 10 TO 8
CHANGING MSHR THRESHOLD FROM 8 TO 6
CHANGING MSHR THRESHOLD FROM 6 TO 5
CHANGING MSHR THRESHOLD FROM 5 TO 3
CHANGING MSHR THRESHOLD FROM 3 TO 2
CHANGING MSHR THRESHOLD FROM 2 TO 3
CHANGING MSHR THRESHOLD FROM 3 TO 5
CHANGING MSHR THRESHOLD FROM 5 TO 6
CHANGING MSHR THRESHOLD FROM 6 TO 8
CHANGING MSHR THRESHOLD FROM 8 TO 10
CHANGING MSHR THRESHOLD FROM 10 TO 11
CHANGING MSHR THRESHOLD FROM 11 TO 13
CHANGING MSHR THRESHOLD FROM 13 TO 15
CHANGING MSHR THRESHOLD FROM 15 TO 16
CHANGING MSHR THRESHOLD FROM 16 TO 15
CHANGING MSHR THRESHOLD FROM 15 TO 13
CHANGING MSHR THRESHOLD FROM 13 TO 11
CHANGING MSHR THRESHOLD FROM 11 TO 10
CHANGING MSHR THRESHOLD FROM 10 TO 8
CHANGING MSHR THRESHOLD FROM 8 TO 6
CHANGING MSHR THRESHOLD FROM 6 TO 5
CHANGING MSHR THRESHOLD FROM 5 TO 3
CHANGING MSHR THRESHOLD FROM 3 TO 2
OFFSET CHANGED FROM 3 TO 4
CHANGING MSHR THRESHOLD FROM 2 TO 3
CHANGING MSHR THRESHOLD FROM 3 TO 5
CHANGING MSHR THRESHOLD FROM 5 TO 6
CHANGING MSHR THRESHOLD FROM 6 TO 8
CHANGING MSHR THRESHOLD FROM 8 TO 10
CHANGING MSHR THRESHOLD FROM 10 TO 11
CHANGING MSHR THRESHOLD FROM 11 TO 13
CHANGING MSHR THRESHOLD FROM 13 TO 15
CHANGING MSHR THRESHOLD FROM 15 TO 16
CHANGING MSHR THRESHOLD FROM 16 TO 18
CHANGING MSHR THRESHOLD FROM 18 TO 16
CHANGING MSHR THRESHOLD FROM 16 TO 15
CHANGING MSHR THRESHOLD FROM 15 TO 13
CHANGING MSHR THRESHOLD FROM 13 TO 11
CHANGING MSHR THRESHOLD FROM 11 TO 10
CHANGING MSHR THRESHOLD FROM 10 TO 8
CHANGING MSHR THRESHOLD FROM 8 TO 6
CHANGING MSHR THRESHOLD FROM 6 TO 5
CHANGING MSHR THRESHOLD FROM 5 TO 3
CHANGING MSHR THRESHOLD FROM 3 TO 2
CHANGING MSHR THRESHOLD FROM 2 TO 3
CHANGING MSHR THRESHOLD FROM 3 TO 5
CHANGING MSHR THRESHOLD FROM 5 TO 6
CHANGING MSHR THRESHOLD FROM 6 TO 8
CHANGING MSHR THRESHOLD FROM 8 TO 10
CHANGING MSHR THRESHOLD FROM 10 TO 11
CHANGING MSHR THRESHOLD FROM 11 TO 13
CHANGING MSHR THRESHOLD FROM 13 TO 15
OFFSET CHANGED FROM 4 TO 3
CHANGING MSHR THRESHOLD FROM 15 TO 13
CHANGING MSHR THRESHOLD FROM 13 TO 11
CHANGING MSHR THRESHOLD FROM 11 TO 10
CHANGING MSHR THRESHOLD FROM 10 TO 8
CHANGING MSHR THRESHOLD FROM 8 TO 6
CHANGING MSHR THRESHOLD FROM 6 TO 5
CHANGING MSHR THRESHOLD FROM 5 TO 3
CHANGING MSHR THRESHOLD FROM 3 TO 2
CHANGING MSHR THRESHOLD FROM 2 TO 3
CHANGING MSHR THRESHOLD FROM 3 TO 5
CHANGING MSHR THRESHOLD FROM 5 TO 6
CHANGING MSHR THRESHOLD FROM 6 TO 8
CHANGING MSHR THRESHOLD FROM 8 TO 10
CHANGING MSHR THRESHOLD FROM 10 TO 11
CHANGING MSHR THRESHOLD FROM 11 TO 13
CHANGING MSHR THRESHOLD FROM 13 TO 15
CHANGING MSHR THRESHOLD FROM 15 TO 16
CHANGING MSHR THRESHOLD FROM 16 TO 18
CHANGING MSHR THRESHOLD FROM 18 TO 19
CHANGING MSHR THRESHOLD FROM 19 TO 21
CHANGING MSHR THRESHOLD FROM 21 TO 23
CHANGING MSHR THRESHOLD FROM 23 TO 24
CHANGING MSHR THRESHOLD FROM 24 TO 26
CHANGING MSHR THRESHOLD FROM 26 TO 28
CHANGING MSHR THRESHOLD FROM 28 TO 26
CHANGING MSHR THRESHOLD FROM 26 TO 24
CHANGING MSHR THRESHOLD FROM 24 TO 23
CHANGING MSHR THRESHOLD FROM 23 TO 21
CHANGING MSHR THRESHOLD FROM 21 TO 19
CHANGING MSHR THRESHOLD FROM 19 TO 18
CHANGING MSHR THRESHOLD FROM 18 TO 16
CHANGING MSHR THRESHOLD FROM 16 TO 15
CHANGING MSHR THRESHOLD FROM 15 TO 13
CHANGING MSHR THRESHOLD FROM 13 TO 11
CHANGING MSHR THRESHOLD FROM 11 TO 10
CHANGING MSHR THRESHOLD FROM 10 TO 8
CHANGING MSHR THRESHOLD FROM 8 TO 6
CHANGING MSHR THRESHOLD FROM 6 TO 5
CHANGING MSHR THRESHOLD FROM 5 TO 3
CHANGING MSHR THRESHOLD FROM 3 TO 2
CHANGING MSHR THRESHOLD FROM 2 TO 3
CHANGING MSHR THRESHOLD FROM 3 TO 5
CHANGING MSHR THRESHOLD FROM 5 TO 6
CHANGING MSHR THRESHOLD FROM 6 TO 8
CHANGING MSHR THRESHOLD FROM 8 TO 10
CHANGING MSHR THRESHOLD FROM 10 TO 11
CHANGING MSHR THRESHOLD FROM 11 TO 13
OFFSET CHANGED FROM 3 TO 1
CHANGING MSHR THRESHOLD FROM 13 TO 15
CHANGING MSHR THRESHOLD FROM 15 TO 16
CHANGING MSHR THRESHOLD FROM 16 TO 15
CHANGING MSHR THRESHOLD FROM 15 TO 13
CHANGING MSHR THRESHOLD FROM 13 TO 11
CHANGING MSHR THRESHOLD FROM 11 TO 10
CHANGING MSHR THRESHOLD FROM 10 TO 8
CHANGING MSHR THRESHOLD FROM 8 TO 6
CHANGING MSHR THRESHOLD FROM 6 TO 5
CHANGING MSHR THRESHOLD FROM 5 TO 3
CHANGING MSHR THRESHOLD FROM 3 TO 2
CHANGING MSHR THRESHOLD FROM 2 TO 3
CHANGING MSHR THRESHOLD FROM 3 TO 5
CHANGING MSHR THRESHOLD FROM 5 TO 6
CHANGING MSHR THRESHOLD FROM 6 TO 8
CHANGING MSHR THRESHOLD FROM 8 TO 10
CHANGING MSHR THRESHOLD FROM 10 TO 11
CHANGING MSHR THRESHOLD FROM 11 TO 13
CHANGING MSHR THRESHOLD FROM 13 TO 15
CHANGING MSHR THRESHOLD FROM 15 TO 16
CHANGING MSHR THRESHOLD FROM 16 TO 18
CHANGING MSHR THRESHOLD FROM 18 TO 19
CHANGING MSHR THRESHOLD FROM 19 TO 21
CHANGING MSHR THRESHOLD FROM 21 TO 19
CHANGING MSHR THRESHOLD FROM 19 TO 18
CHANGING MSHR THRESHOLD FROM 18 TO 16
CHANGING MSHR THRESHOLD FROM 16 TO 15
CHANGING MSHR THRESHOLD FROM 15 TO 13
CHANGING MSHR THRESHOLD FROM 13 TO 11
CHANGING MSHR THRESHOLD FROM 11 TO 10
CHANGING MSHR THRESHOLD FROM 10 TO 8
CHANGING MSHR THRESHOLD FROM 8 TO 6
CHANGING MSHR THRESHOLD FROM 6 TO 5
CHANGING MSHR THRESHOLD FROM 5 TO 3
CHANGING MSHR THRESHOLD FROM 3 TO 2
OFFSET CHANGED FROM 1 TO 3
CHANGING MSHR THRESHOLD FROM 2 TO 3
CHANGING MSHR THRESHOLD FROM 3 TO 5
CHANGING MSHR THRESHOLD FROM 5 TO 6
CHANGING MSHR THRESHOLD FROM 6 TO 8
CHANGING MSHR THRESHOLD FROM 8 TO 10
CHANGING MSHR THRESHOLD FROM 10 TO 11
CHANGING MSHR THRESHOLD FROM 11 TO 13
CHANGING MSHR THRESHOLD FROM 13 TO 15
CHANGING MSHR THRESHOLD FROM 15 TO 16
CHANGING MSHR THRESHOLD FROM 16 TO 18
CHANGING MSHR THRESHOLD FROM 18 TO 19
CHANGING MSHR THRESHOLD FROM 19 TO 18
CHANGING MSHR THRESHOLD FROM 18 TO 16
CHANGING MSHR THRESHOLD FROM 16 TO 15
CHANGING MSHR THRESHOLD FROM 15 TO 13
CHANGING MSHR THRESHOLD FROM 13 TO 11
CHANGING MSHR THRESHOLD FROM 11 TO 10
CHANGING MSHR THRESHOLD FROM 10 TO 8
CHANGING MSHR THRESHOLD FROM 8 TO 6
CHANGING MSHR THRESHOLD FROM 6 TO 5
CHANGING MSHR THRESHOLD FROM 5 TO 3
CHANGING MSHR THRESHOLD FROM 3 TO 2
CHANGING MSHR THRESHOLD FROM 2 TO 3
CHANGING MSHR THRESHOLD FROM 3 TO 5
CHANGING MSHR THRESHOLD FROM 5 TO 6
CHANGING MSHR THRESHOLD FROM 6 TO 8
CHANGING MSHR THRESHOLD FROM 8 TO 10
CHANGING MSHR THRESHOLD FROM 10 TO 11
CHANGING MSHR THRESHOLD FROM 11 TO 13
CHANGING MSHR THRESHOLD FROM 13 TO 15
CHANGING MSHR THRESHOLD FROM 15 TO 16
CHANGING MSHR THRESHOLD FROM 16 TO 18
CHANGING MSHR THRESHOLD FROM 18 TO 16
CHANGING MSHR THRESHOLD FROM 16 TO 15
CHANGING MSHR THRESHOLD FROM 15 TO 13
CHANGING MSHR THRESHOLD FROM 13 TO 11
CHANGING MSHR THRESHOLD FROM 11 TO 10
CHANGING MSHR THRESHOLD FROM 10 TO 8
CHANGING MSHR THRESHOLD FROM 8 TO 6
CHANGING MSHR THRESHOLD FROM 6 TO 5
CHANGING MSHR THRESHOLD FROM 5 TO 3
CHANGING MSHR THRESHOLD FROM 3 TO 2
OFFSET CHANGED FROM 3 TO 1
CHANGING MSHR THRESHOLD FROM 2 TO 3
CHANGING MSHR THRESHOLD FROM 3 TO 5
CHANGING MSHR THRESHOLD FROM 5 TO 6
CHANGING MSHR THRESHOLD FROM 6 TO 8
CHANGING MSHR THRESHOLD FROM 8 TO 10
CHANGING MSHR THRESHOLD FROM 10 TO 11
CHANGING MSHR THRESHOLD FROM 11 TO 13
CHANGING MSHR THRESHOLD FROM 13 TO 15
CHANGING MSHR THRESHOLD FROM 15 TO 16
CHANGING MSHR THRESHOLD FROM 16 TO 18
CHANGING MSHR THRESHOLD FROM 18 TO 16
CHANGING MSHR THRESHOLD FROM 16 TO 15
CHANGING MSHR THRESHOLD FROM 15 TO 13
CHANGING MSHR THRESHOLD FROM 13 TO 11
CHANGING MSHR THRESHOLD FROM 11 TO 10
CHANGING MSHR THRESHOLD FROM 10 TO 8
CHANGING MSHR THRESHOLD FROM 8 TO 6
CHANGING MSHR THRESHOLD FROM 6 TO 5
CHANGING MSHR THRESHOLD FROM 5 TO 3
CHANGING MSHR THRESHOLD FROM 3 TO 2
CHANGING MSHR THRESHOLD FROM 2 TO 3
CHANGING MSHR THRESHOLD FROM 3 TO 5
CHANGING MSHR THRESHOLD FROM 5 TO 6
CHANGING MSHR THRESHOLD FROM 6 TO 8
CHANGING MSHR THRESHOLD FROM 8 TO 10
CHANGING MSHR THRESHOLD FROM 10 TO 11
OFFSET CHANGED FROM 1 TO 1
CHANGING MSHR THRESHOLD FROM 11 TO 10
CHANGING MSHR THRESHOLD FROM 10 TO 8
CHANGING MSHR THRESHOLD FROM 8 TO 6
CHANGING MSHR THRESHOLD FROM 6 TO 5
CHANGING MSHR THRESHOLD FROM 5 TO 3
CHANGING MSHR THRESHOLD FROM 3 TO 2
CHANGING MSHR THRESHOLD FROM 2 TO 3
CHANGING MSHR THRESHOLD FROM 3 TO 5
CHANGING MSHR THRESHOLD FROM 5 TO 6
CHANGING MSHR THRESHOLD FROM 6 TO 8
CHANGING MSHR THRESHOLD FROM 8 TO 10
CHANGING MSHR THRESHOLD FROM 10 TO 11
CHANGING MSHR THRESHOLD FROM 11 TO 13
CHANGING MSHR THRESHOLD FROM 13 TO 15
CHANGING MSHR THRESHOLD FROM 15 TO 16
CHANGING MSHR THRESHOLD FROM 16 TO 18
CHANGING MSHR THRESHOLD FROM 18 TO 19
CHANGING MSHR THRESHOLD FROM 19 TO 21
CHANGING MSHR THRESHOLD FROM 21 TO 23
CHANGING MSHR THRESHOLD FROM 23 TO 24
CHANGING MSHR THRESHOLD FROM 24 TO 26
CHANGING MSHR THRESHOLD FROM 26 TO 28
OFFSET CHANGED FROM 1 TO 1
CHANGING MSHR THRESHOLD FROM 28 TO 26
CHANGING MSHR THRESHOLD FROM 26 TO 24
CHANGING MSHR THRESHOLD FROM 24 TO 23
CHANGING MSHR THRESHOLD FROM 23 TO 21
CHANGING MSHR THRESHOLD FROM 21 TO 19
CHANGING MSHR THRESHOLD FROM 19 TO 18
CHANGING MSHR THRESHOLD FROM 18 TO 16
CHANGING MSHR THRESHOLD FROM 16 TO 15
CHANGING MSHR THRESHOLD FROM 15 TO 13
CHANGING MSHR THRESHOLD FROM 13 TO 11
CHANGING MSHR THRESHOLD FROM 11 TO 10
CHANGING MSHR THRESHOLD FROM 10 TO 8
CHANGING MSHR THRESHOLD FROM 8 TO 6
CHANGING MSHR THRESHOLD FROM 6 TO 5
CHANGING MSHR THRESHOLD FROM 5 TO 3
CHANGING MSHR THRESHOLD FROM 3 TO 2
CHANGING MSHR THRESHOLD FROM 2 TO 3
CHANGING MSHR THRESHOLD FROM 3 TO 5
CHANGING MSHR THRESHOLD FROM 5 TO 6
CHANGING MSHR THRESHOLD FROM 6 TO 8
CHANGING MSHR THRESHOLD FROM 8 TO 10
CHANGING MSHR THRESHOLD FROM 10 TO 11
CHANGING MSHR THRESHOLD FROM 11 TO 13
CHANGING MSHR THRESHOLD FROM 13 TO 15
CHANGING MSHR THRESHOLD FROM 15 TO 16
CHANGING MSHR THRESHOLD FROM 16 TO 18
CHANGING MSHR THRESHOLD FROM 18 TO 19
CHANGING MSHR THRESHOLD FROM 19 TO 21
CHANGING MSHR THRESHOLD FROM 21 TO 23
CHANGING MSHR THRESHOLD FROM 23 TO 24
CHANGING MSHR THRESHOLD FROM 24 TO 26
CHANGING MSHR THRESHOLD FROM 26 TO 28
OFFSET CHANGED FROM 1 TO 2
Heartbeat CPU 0 instructions: 20000001 cycles: 7503719 heartbeat IPC: 2.63892 cumulative IPC: 2.66535 (Simulation time: 0 hr 0 min 52 sec) 
OFFSET CHANGED FROM 2 TO 10
OFFSET CHANGED FROM 10 TO 6
OFFSET CHANGED FROM 6 TO 9
CHANGING MSHR THRESHOLD FROM 28 TO 26
CHANGING MSHR THRESHOLD FROM 26 TO 24
CHANGING MSHR THRESHOLD FROM 24 TO 23
CHANGING MSHR THRESHOLD FROM 23 TO 21
CHANGING MSHR THRESHOLD FROM 21 TO 19
CHANGING MSHR THRESHOLD FROM 19 TO 18
CHANGING MSHR THRESHOLD FROM 18 TO 16
CHANGING MSHR THRESHOLD FROM 16 TO 15
CHANGING MSHR THRESHOLD FROM 15 TO 13
CHANGING MSHR THRESHOLD FROM 13 TO 11
CHANGING MSHR THRESHOLD FROM 11 TO 10
CHANGING MSHR THRESHOLD FROM 10 TO 8
CHANGING MSHR THRESHOLD FROM 8 TO 6
CHANGING MSHR THRESHOLD FROM 6 TO 5
CHANGING MSHR THRESHOLD FROM 5 TO 3
CHANGING MSHR THRESHOLD FROM 3 TO 2
CHANGING MSHR THRESHOLD FROM 2 TO 3
CHANGING MSHR THRESHOLD FROM 3 TO 5
CHANGING MSHR THRESHOLD FROM 5 TO 6
CHANGING MSHR THRESHOLD FROM 6 TO 8
CHANGING MSHR THRESHOLD FROM 8 TO 10
CHANGING MSHR THRESHOLD FROM 10 TO 11
OFFSET CHANGED FROM 9 TO -7
OFFSET CHANGED FROM -7 TO 1
CHANGING MSHR THRESHOLD FROM 11 TO 10
CHANGING MSHR THRESHOLD FROM 10 TO 8
CHANGING MSHR THRESHOLD FROM 8 TO 6
CHANGING MSHR THRESHOLD FROM 6 TO 5
CHANGING MSHR THRESHOLD FROM 5 TO 3
CHANGING MSHR THRESHOLD FROM 3 TO 2
CHANGING MSHR THRESHOLD FROM 2 TO 3
CHANGING MSHR THRESHOLD FROM 3 TO 5
CHANGING MSHR THRESHOLD FROM 5 TO 6
CHANGING MSHR THRESHOLD FROM 6 TO 8
CHANGING MSHR THRESHOLD FROM 8 TO 10
CHANGING MSHR THRESHOLD FROM 10 TO 11
CHANGING MSHR THRESHOLD FROM 11 TO 13
CHANGING MSHR THRESHOLD FROM 13 TO 15
CHANGING MSHR THRESHOLD FROM 15 TO 16
CHANGING MSHR THRESHOLD FROM 16 TO 18
CHANGING MSHR THRESHOLD FROM 18 TO 16
CHANGING MSHR THRESHOLD FROM 16 TO 15
CHANGING MSHR THRESHOLD FROM 15 TO 13
CHANGING MSHR THRESHOLD FROM 13 TO 11
CHANGING MSHR THRESHOLD FROM 11 TO 10
CHANGING MSHR THRESHOLD FROM 10 TO 8
CHANGING MSHR THRESHOLD FROM 8 TO 6
CHANGING MSHR THRESHOLD FROM 6 TO 5
OFFSET CHANGED FROM 1 TO 4
CHANGING MSHR THRESHOLD FROM 5 TO 6
CHANGING MSHR THRESHOLD FROM 6 TO 8
CHANGING MSHR THRESHOLD FROM 8 TO 10
CHANGING MSHR THRESHOLD FROM 10 TO 11
CHANGING MSHR THRESHOLD FROM 11 TO 13
CHANGING MSHR THRESHOLD FROM 13 TO 15
CHANGING MSHR THRESHOLD FROM 15 TO 16
CHANGING MSHR THRESHOLD FROM 16 TO 18
CHANGING MSHR THRESHOLD FROM 18 TO 19
CHANGING MSHR THRESHOLD FROM 19 TO 18
CHANGING MSHR THRESHOLD FROM 18 TO 16
CHANGING MSHR THRESHOLD FROM 16 TO 15
CHANGING MSHR THRESHOLD FROM 15 TO 13
CHANGING MSHR THRESHOLD FROM 13 TO 11
CHANGING MSHR THRESHOLD FROM 11 TO 10
CHANGING MSHR THRESHOLD FROM 10 TO 8
CHANGING MSHR THRESHOLD FROM 8 TO 6
CHANGING MSHR THRESHOLD FROM 6 TO 5
CHANGING MSHR THRESHOLD FROM 5 TO 3
CHANGING MSHR THRESHOLD FROM 3 TO 5
CHANGING MSHR THRESHOLD FROM 5 TO 6
CHANGING MSHR THRESHOLD FROM 6 TO 8
CHANGING MSHR THRESHOLD FROM 8 TO 10
CHANGING MSHR THRESHOLD FROM 10 TO 11
CHANGING MSHR THRESHOLD FROM 11 TO 13
OFFSET CHANGED FROM 4 TO 1
CHANGING MSHR THRESHOLD FROM 13 TO 11
CHANGING MSHR THRESHOLD FROM 11 TO 10
CHANGING MSHR THRESHOLD FROM 10 TO 8
CHANGING MSHR THRESHOLD FROM 8 TO 6
CHANGING MSHR THRESHOLD FROM 6 TO 5
CHANGING MSHR THRESHOLD FROM 5 TO 3
CHANGING MSHR THRESHOLD FROM 3 TO 2
CHANGING MSHR THRESHOLD FROM 2 TO 3
CHANGING MSHR THRESHOLD FROM 3 TO 5
CHANGING MSHR THRESHOLD FROM 5 TO 6
CHANGING MSHR THRESHOLD FROM 6 TO 8
CHANGING MSHR THRESHOLD FROM 8 TO 10
CHANGING MSHR THRESHOLD FROM 10 TO 11
CHANGING MSHR THRESHOLD FROM 11 TO 13
CHANGING MSHR THRESHOLD FROM 13 TO 15
CHANGING MSHR THRESHOLD FROM 15 TO 16
CHANGING MSHR THRESHOLD FROM 16 TO 18
CHANGING MSHR THRESHOLD FROM 18 TO 19
CHANGING MSHR THRESHOLD FROM 19 TO 21
CHANGING MSHR THRESHOLD FROM 21 TO 23
CHANGING MSHR THRESHOLD FROM 23 TO 24
CHANGING MSHR THRESHOLD FROM 24 TO 23
CHANGING MSHR THRESHOLD FROM 23 TO 21
CHANGING MSHR THRESHOLD FROM 21 TO 19
CHANGING MSHR THRESHOLD FROM 19 TO 18
CHANGING MSHR THRESHOLD FROM 18 TO 16
CHANGING MSHR THRESHOLD FROM 16 TO 15
CHANGING MSHR THRESHOLD FROM 15 TO 13
CHANGING MSHR THRESHOLD FROM 13 TO 11
CHANGING MSHR THRESHOLD FROM 11 TO 10
CHANGING MSHR THRESHOLD FROM 10 TO 8
CHANGING MSHR THRESHOLD FROM 8 TO 6
CHANGING MSHR THRESHOLD FROM 6 TO 5
CHANGING MSHR THRESHOLD FROM 5 TO 3
CHANGING MSHR THRESHOLD FROM 3 TO 2
CHANGING MSHR THRESHOLD FROM 2 TO 3
CHANGING MSHR THRESHOLD FROM 3 TO 5
CHANGING MSHR THRESHOLD FROM 5 TO 6
CHANGING MSHR THRESHOLD FROM 6 TO 8
CHANGING MSHR THRESHOLD FROM 8 TO 10
CHANGING MSHR THRESHOLD FROM 10 TO 11
CHANGING MSHR THRESHOLD FROM 11 TO 13
CHANGING MSHR THRESHOLD FROM 13 TO 15
CHANGING MSHR THRESHOLD FROM 15 TO 16
CHANGING MSHR THRESHOLD FROM 16 TO 18
CHANGING MSHR THRESHOLD FROM 18 TO 19
CHANGING MSHR THRESHOLD FROM 19 TO 21
OFFSET CHANGED FROM 1 TO 2
CHANGING MSHR THRESHOLD FROM 21 TO 23
CHANGING MSHR THRESHOLD FROM 23 TO 24
CHANGING MSHR THRESHOLD FROM 24 TO 23
CHANGING MSHR THRESHOLD FROM 23 TO 21
CHANGING MSHR THRESHOLD FROM 21 TO 19
CHANGING MSHR THRESHOLD FROM 19 TO 18
CHANGING MSHR THRESHOLD FROM 18 TO 16
CHANGING MSHR THRESHOLD FROM 16 TO 15
CHANGING MSHR THRESHOLD FROM 15 TO 13
CHANGING MSHR THRESHOLD FROM 13 TO 11
CHANGING MSHR THRESHOLD FROM 11 TO 10
CHANGING MSHR THRESHOLD FROM 10 TO 8
CHANGING MSHR THRESHOLD FROM 8 TO 6
CHANGING MSHR THRESHOLD FROM 6 TO 5
CHANGING MSHR THRESHOLD FROM 5 TO 3
CHANGING MSHR THRESHOLD FROM 3 TO 5
CHANGING MSHR THRESHOLD FROM 5 TO 6
CHANGING MSHR THRESHOLD FROM 6 TO 8
CHANGING MSHR THRESHOLD FROM 8 TO 10
CHANGING MSHR THRESHOLD FROM 10 TO 11
CHANGING MSHR THRESHOLD FROM 11 TO 13
CHANGING MSHR THRESHOLD FROM 13 TO 15
OFFSET CHANGED FROM 2 TO 2
CHANGING MSHR THRESHOLD FROM 15 TO 13
CHANGING MSHR THRESHOLD FROM 13 TO 11
CHANGING MSHR THRESHOLD FROM 11 TO 10
CHANGING MSHR THRESHOLD FROM 10 TO 8
CHANGING MSHR THRESHOLD FROM 8 TO 6
CHANGING MSHR THRESHOLD FROM 6 TO 5
CHANGING MSHR THRESHOLD FROM 5 TO 3
CHANGING MSHR THRESHOLD FROM 3 TO 2
CHANGING MSHR THRESHOLD FROM 2 TO 3
CHANGING MSHR THRESHOLD FROM 3 TO 5
CHANGING MSHR THRESHOLD FROM 5 TO 6
CHANGING MSHR THRESHOLD FROM 6 TO 8
CHANGING MSHR THRESHOLD FROM 8 TO 10
CHANGING MSHR THRESHOLD FROM 10 TO 11
CHANGING MSHR THRESHOLD FROM 11 TO 13
CHANGING MSHR THRESHOLD FROM 13 TO 15
CHANGING MSHR THRESHOLD FROM 15 TO 16
CHANGING MSHR THRESHOLD FROM 16 TO 15
CHANGING MSHR THRESHOLD FROM 15 TO 13
CHANGING MSHR THRESHOLD FROM 13 TO 11
CHANGING MSHR THRESHOLD FROM 11 TO 10
CHANGING MSHR THRESHOLD FROM 10 TO 8
CHANGING MSHR THRESHOLD FROM 8 TO 6
CHANGING MSHR THRESHOLD FROM 6 TO 5
CHANGING MSHR THRESHOLD FROM 5 TO 3
OFFSET CHANGED FROM 2 TO 2
CHANGING MSHR THRESHOLD FROM 3 TO 2
NO PREFETCH REQUEST BECAUSE PREFETCH SCORE 7 IS NOT GREATER THAN 20 (MSHR OCC = 2)
CHANGING MSHR THRESHOLD FROM 2 TO 3
CHANGING MSHR THRESHOLD FROM 3 TO 5
CHANGING MSHR THRESHOLD FROM 5 TO 6
CHANGING MSHR THRESHOLD FROM 6 TO 8
CHANGING MSHR THRESHOLD FROM 8 TO 10
CHANGING MSHR THRESHOLD FROM 10 TO 11
CHANGING MSHR THRESHOLD FROM 11 TO 13
CHANGING MSHR THRESHOLD FROM 13 TO 15
CHANGING MSHR THRESHOLD FROM 15 TO 16
CHANGING MSHR THRESHOLD FROM 16 TO 18
CHANGING MSHR THRESHOLD FROM 18 TO 19
CHANGING MSHR THRESHOLD FROM 19 TO 21
CHANGING MSHR THRESHOLD FROM 21 TO 23
CHANGING MSHR THRESHOLD FROM 23 TO 24
CHANGING MSHR THRESHOLD FROM 24 TO 26
CHANGING MSHR THRESHOLD FROM 26 TO 28
CHANGING MSHR THRESHOLD FROM 28 TO 26
CHANGING MSHR THRESHOLD FROM 26 TO 24
CHANGING MSHR THRESHOLD FROM 24 TO 23
CHANGING MSHR THRESHOLD FROM 23 TO 21
CHANGING MSHR THRESHOLD FROM 21 TO 19
CHANGING MSHR THRESHOLD FROM 19 TO 18
CHANGING MSHR THRESHOLD FROM 18 TO 16
CHANGING MSHR THRESHOLD FROM 16 TO 15
CHANGING MSHR THRESHOLD FROM 15 TO 13
CHANGING MSHR THRESHOLD FROM 13 TO 11
CHANGING MSHR THRESHOLD FROM 11 TO 10
CHANGING MSHR THRESHOLD FROM 10 TO 8
CHANGING MSHR THRESHOLD FROM 8 TO 6
CHANGING MSHR THRESHOLD FROM 6 TO 5
CHANGING MSHR THRESHOLD FROM 5 TO 3
CHANGING MSHR THRESHOLD FROM 3 TO 2
OFFSET CHANGED FROM 2 TO 1
CHANGING MSHR THRESHOLD FROM 2 TO 3
CHANGING MSHR THRESHOLD FROM 3 TO 5
CHANGING MSHR THRESHOLD FROM 5 TO 6
CHANGING MSHR THRESHOLD FROM 6 TO 8
CHANGING MSHR THRESHOLD FROM 8 TO 10
CHANGING MSHR THRESHOLD FROM 10 TO 11
CHANGING MSHR THRESHOLD FROM 11 TO 13
CHANGING MSHR THRESHOLD FROM 13 TO 15
CHANGING MSHR THRESHOLD FROM 15 TO 16
CHANGING MSHR THRESHOLD FROM 16 TO 18
CHANGING MSHR THRESHOLD FROM 18 TO 19
CHANGING MSHR THRESHOLD FROM 19 TO 21
CHANGING MSHR THRESHOLD FROM 21 TO 23
CHANGING MSHR THRESHOLD FROM 23 TO 24
CHANGING MSHR THRESHOLD FROM 24 TO 23
CHANGING MSHR THRESHOLD FROM 23 TO 21
CHANGING MSHR THRESHOLD FROM 21 TO 19
CHANGING MSHR THRESHOLD FROM 19 TO 18
CHANGING MSHR THRESHOLD FROM 18 TO 16
CHANGING MSHR THRESHOLD FROM 16 TO 15
CHANGING MSHR THRESHOLD FROM 15 TO 13
CHANGING MSHR THRESHOLD FROM 13 TO 11
CHANGING MSHR THRESHOLD FROM 11 TO 10
CHANGING MSHR THRESHOLD FROM 10 TO 8
CHANGING MSHR THRESHOLD FROM 8 TO 6
CHANGING MSHR THRESHOLD FROM 6 TO 5
CHANGING MSHR THRESHOLD FROM 5 TO 3
CHANGING MSHR THRESHOLD FROM 3 TO 2
CHANGING MSHR THRESHOLD FROM 2 TO 3
CHANGING MSHR THRESHOLD FROM 3 TO 5
CHANGING MSHR THRESHOLD FROM 5 TO 6
CHANGING MSHR THRESHOLD FROM 6 TO 8
CHANGING MSHR THRESHOLD FROM 8 TO 10
CHANGING MSHR THRESHOLD FROM 10 TO 11
CHANGING MSHR THRESHOLD FROM 11 TO 13
CHANGING MSHR THRESHOLD FROM 13 TO 15
CHANGING MSHR THRESHOLD FROM 15 TO 16
CHANGING MSHR THRESHOLD FROM 16 TO 18
CHANGING MSHR THRESHOLD FROM 18 TO 19
CHANGING MSHR THRESHOLD FROM 19 TO 21
CHANGING MSHR THRESHOLD FROM 21 TO 23
CHANGING MSHR THRESHOLD FROM 23 TO 24
CHANGING MSHR THRESHOLD FROM 24 TO 26
CHANGING MSHR THRESHOLD FROM 26 TO 24
CHANGING MSHR THRESHOLD FROM 24 TO 23
CHANGING MSHR THRESHOLD FROM 23 TO 21
CHANGING MSHR THRESHOLD FROM 21 TO 19
CHANGING MSHR THRESHOLD FROM 19 TO 18
CHANGING MSHR THRESHOLD FROM 18 TO 16
CHANGING MSHR THRESHOLD FROM 16 TO 15
CHANGING MSHR THRESHOLD FROM 15 TO 13
CHANGING MSHR THRESHOLD FROM 13 TO 11
CHANGING MSHR THRESHOLD FROM 11 TO 10
CHANGING MSHR THRESHOLD FROM 10 TO 8
CHANGING MSHR THRESHOLD FROM 8 TO 6
CHANGING MSHR THRESHOLD FROM 6 TO 5
CHANGING MSHR THRESHOLD FROM 5 TO 3
CHANGING MSHR THRESHOLD FROM 3 TO 2
CHANGING MSHR THRESHOLD FROM 2 TO 3
CHANGING MSHR THRESHOLD FROM 3 TO 5
CHANGING MSHR THRESHOLD FROM 5 TO 6
CHANGING MSHR THRESHOLD FROM 6 TO 8
OFFSET CHANGED FROM 1 TO 4
OFFSET CHANGED FROM 4 TO 14
CHANGING MSHR THRESHOLD FROM 8 TO 6
CHANGING MSHR THRESHOLD FROM 6 TO 5
CHANGING MSHR THRESHOLD FROM 5 TO 3
CHANGING MSHR THRESHOLD FROM 3 TO 2
CHANGING MSHR THRESHOLD FROM 2 TO 3
CHANGING MSHR THRESHOLD FROM 3 TO 5
CHANGING MSHR THRESHOLD FROM 5 TO 6
CHANGING MSHR THRESHOLD FROM 6 TO 8
CHANGING MSHR THRESHOLD FROM 8 TO 10
CHANGING MSHR THRESHOLD FROM 10 TO 11
CHANGING MSHR THRESHOLD FROM 11 TO 13
OFFSET CHANGED FROM 14 TO 5
CHANGING MSHR THRESHOLD FROM 13 TO 11
CHANGING MSHR THRESHOLD FROM 11 TO 10
CHANGING MSHR THRESHOLD FROM 10 TO 8
CHANGING MSHR THRESHOLD FROM 8 TO 6
CHANGING MSHR THRESHOLD FROM 6 TO 5
CHANGING MSHR THRESHOLD FROM 5 TO 3
CHANGING MSHR THRESHOLD FROM 3 TO 2
CHANGING MSHR THRESHOLD FROM 2 TO 3
CHANGING MSHR THRESHOLD FROM 3 TO 5
CHANGING MSHR THRESHOLD FROM 5 TO 6
CHANGING MSHR THRESHOLD FROM 6 TO 8
CHANGING MSHR THRESHOLD FROM 8 TO 10
CHANGING MSHR THRESHOLD FROM 10 TO 11
CHANGING MSHR THRESHOLD FROM 11 TO 13
CHANGING MSHR THRESHOLD FROM 13 TO 15
CHANGING MSHR THRESHOLD FROM 15 TO 16
CHANGING MSHR THRESHOLD FROM 16 TO 18
CHANGING MSHR THRESHOLD FROM 18 TO 19
CHANGING MSHR THRESHOLD FROM 19 TO 21
CHANGING MSHR THRESHOLD FROM 21 TO 23
CHANGING MSHR THRESHOLD FROM 23 TO 24
CHANGING MSHR THRESHOLD FROM 24 TO 26
CHANGING MSHR THRESHOLD FROM 26 TO 28
OFFSET CHANGED FROM 5 TO -1
OFFSET CHANGED FROM -1 TO 1
OFFSET CHANGED FROM 1 TO 2
OFFSET CHANGED FROM 2 TO 13
CHANGING MSHR THRESHOLD FROM 28 TO 26
CHANGING MSHR THRESHOLD FROM 26 TO 24
CHANGING MSHR THRESHOLD FROM 24 TO 23
CHANGING MSHR THRESHOLD FROM 23 TO 21
CHANGING MSHR THRESHOLD FROM 21 TO 19
CHANGING MSHR THRESHOLD FROM 19 TO 18
CHANGING MSHR THRESHOLD FROM 18 TO 16
CHANGING MSHR THRESHOLD FROM 16 TO 15
CHANGING MSHR THRESHOLD FROM 15 TO 13
CHANGING MSHR THRESHOLD FROM 13 TO 11
CHANGING MSHR THRESHOLD FROM 11 TO 10
CHANGING MSHR THRESHOLD FROM 10 TO 8
CHANGING MSHR THRESHOLD FROM 8 TO 6
CHANGING MSHR THRESHOLD FROM 6 TO 5
CHANGING MSHR THRESHOLD FROM 5 TO 3
CHANGING MSHR THRESHOLD FROM 3 TO 2
CHANGING MSHR THRESHOLD FROM 2 TO 3
CHANGING MSHR THRESHOLD FROM 3 TO 5
CHANGING MSHR THRESHOLD FROM 5 TO 6
CHANGING MSHR THRESHOLD FROM 6 TO 8
CHANGING MSHR THRESHOLD FROM 8 TO 10
CHANGING MSHR THRESHOLD FROM 10 TO 11
CHANGING MSHR THRESHOLD FROM 11 TO 13
CHANGING MSHR THRESHOLD FROM 13 TO 15
CHANGING MSHR THRESHOLD FROM 15 TO 16
CHANGING MSHR THRESHOLD FROM 16 TO 18
CHANGING MSHR THRESHOLD FROM 18 TO 19
OFFSET CHANGED FROM 13 TO 10
CHANGING MSHR THRESHOLD FROM 19 TO 18
CHANGING MSHR THRESHOLD FROM 18 TO 16
CHANGING MSHR THRESHOLD FROM 16 TO 15
CHANGING MSHR THRESHOLD FROM 15 TO 13
CHANGING MSHR THRESHOLD FROM 13 TO 11
CHANGING MSHR THRESHOLD FROM 11 TO 10
CHANGING MSHR THRESHOLD FROM 10 TO 8
CHANGING MSHR THRESHOLD FROM 8 TO 6
CHANGING MSHR THRESHOLD FROM 6 TO 5
CHANGING MSHR THRESHOLD FROM 5 TO 3
CHANGING MSHR THRESHOLD FROM 3 TO 2
NO PREFETCH REQUEST BECAUSE PREFETCH SCORE 3 IS NOT GREATER THAN 20 (MSHR OCC = 2)
CHANGING MSHR THRESHOLD FROM 2 TO 3
CHANGING MSHR THRESHOLD FROM 3 TO 5
CHANGING MSHR THRESHOLD FROM 5 TO 6
CHANGING MSHR THRESHOLD FROM 6 TO 8
CHANGING MSHR THRESHOLD FROM 8 TO 10
CHANGING MSHR THRESHOLD FROM 10 TO 11
CHANGING MSHR THRESHOLD FROM 11 TO 13
CHANGING MSHR THRESHOLD FROM 13 TO 15
CHANGING MSHR THRESHOLD FROM 15 TO 16
CHANGING MSHR THRESHOLD FROM 16 TO 18
CHANGING MSHR THRESHOLD FROM 18 TO 19
CHANGING MSHR THRESHOLD FROM 19 TO 18
CHANGING MSHR THRESHOLD FROM 18 TO 16
CHANGING MSHR THRESHOLD FROM 16 TO 15
CHANGING MSHR THRESHOLD FROM 15 TO 13
CHANGING MSHR THRESHOLD FROM 13 TO 11
CHANGING MSHR THRESHOLD FROM 11 TO 10
CHANGING MSHR THRESHOLD FROM 10 TO 8
CHANGING MSHR THRESHOLD FROM 8 TO 6
CHANGING MSHR THRESHOLD FROM 6 TO 5
CHANGING MSHR THRESHOLD FROM 5 TO 3
CHANGING MSHR THRESHOLD FROM 3 TO 2
OFFSET CHANGED FROM 10 TO 4
CHANGING MSHR THRESHOLD FROM 2 TO 3
CHANGING MSHR THRESHOLD FROM 3 TO 5
CHANGING MSHR THRESHOLD FROM 5 TO 6
CHANGING MSHR THRESHOLD FROM 6 TO 8
CHANGING MSHR THRESHOLD FROM 8 TO 10
CHANGING MSHR THRESHOLD FROM 10 TO 11
CHANGING MSHR THRESHOLD FROM 11 TO 13
CHANGING MSHR THRESHOLD FROM 13 TO 15
CHANGING MSHR THRESHOLD FROM 15 TO 16
CHANGING MSHR THRESHOLD FROM 16 TO 18
CHANGING MSHR THRESHOLD FROM 18 TO 16
CHANGING MSHR THRESHOLD FROM 16 TO 15
CHANGING MSHR THRESHOLD FROM 15 TO 13
CHANGING MSHR THRESHOLD FROM 13 TO 11
CHANGING MSHR THRESHOLD FROM 11 TO 10
CHANGING MSHR THRESHOLD FROM 10 TO 8
CHANGING MSHR THRESHOLD FROM 8 TO 6
CHANGING MSHR THRESHOLD FROM 6 TO 5
CHANGING MSHR THRESHOLD FROM 5 TO 3
CHANGING MSHR THRESHOLD FROM 3 TO 2
CHANGING MSHR THRESHOLD FROM 2 TO 3
CHANGING MSHR THRESHOLD FROM 3 TO 5
CHANGING MSHR THRESHOLD FROM 5 TO 6
CHANGING MSHR THRESHOLD FROM 6 TO 8
CHANGING MSHR THRESHOLD FROM 8 TO 10
CHANGING MSHR THRESHOLD FROM 10 TO 11
CHANGING MSHR THRESHOLD FROM 11 TO 13
CHANGING MSHR THRESHOLD FROM 13 TO 15
OFFSET CHANGED FROM 4 TO 4
CHANGING MSHR THRESHOLD FROM 15 TO 13
CHANGING MSHR THRESHOLD FROM 13 TO 11
CHANGING MSHR THRESHOLD FROM 11 TO 10
CHANGING MSHR THRESHOLD FROM 10 TO 8
CHANGING MSHR THRESHOLD FROM 8 TO 6
CHANGING MSHR THRESHOLD FROM 6 TO 5
CHANGING MSHR THRESHOLD FROM 5 TO 3
CHANGING MSHR THRESHOLD FROM 3 TO 2
CHANGING MSHR THRESHOLD FROM 2 TO 3
CHANGING MSHR THRESHOLD FROM 3 TO 5
CHANGING MSHR THRESHOLD FROM 5 TO 6
CHANGING MSHR THRESHOLD FROM 6 TO 8
CHANGING MSHR THRESHOLD FROM 8 TO 10
Heartbeat CPU 0 instructions: 30000000 cycles: 11184911 heartbeat IPC: 2.71651 cumulative IPC: 2.68218 (Simulation time: 0 hr 1 min 18 sec) 
OFFSET CHANGED FROM 4 TO 3
OFFSET CHANGED FROM 3 TO 6
CHANGING MSHR THRESHOLD FROM 10 TO 8
CHANGING MSHR THRESHOLD FROM 8 TO 6
CHANGING MSHR THRESHOLD FROM 6 TO 5
CHANGING MSHR THRESHOLD FROM 5 TO 3
CHANGING MSHR THRESHOLD FROM 3 TO 2
CHANGING MSHR THRESHOLD FROM 2 TO 3
CHANGING MSHR THRESHOLD FROM 3 TO 5
CHANGING MSHR THRESHOLD FROM 5 TO 6
CHANGING MSHR THRESHOLD FROM 6 TO 8
CHANGING MSHR THRESHOLD FROM 8 TO 10
CHANGING MSHR THRESHOLD FROM 10 TO 11
CHANGING MSHR THRESHOLD FROM 11 TO 13
CHANGING MSHR THRESHOLD FROM 13 TO 15
CHANGING MSHR THRESHOLD FROM 15 TO 16
CHANGING MSHR THRESHOLD FROM 16 TO 18
OFFSET CHANGED FROM 6 TO 4
CHANGING MSHR THRESHOLD FROM 18 TO 16
CHANGING MSHR THRESHOLD FROM 16 TO 15
CHANGING MSHR THRESHOLD FROM 15 TO 13
CHANGING MSHR THRESHOLD FROM 13 TO 11
CHANGING MSHR THRESHOLD FROM 11 TO 10
CHANGING MSHR THRESHOLD FROM 10 TO 8
CHANGING MSHR THRESHOLD FROM 8 TO 6
CHANGING MSHR THRESHOLD FROM 6 TO 5
CHANGING MSHR THRESHOLD FROM 5 TO 3
CHANGING MSHR THRESHOLD FROM 3 TO 2
CHANGING MSHR THRESHOLD FROM 2 TO 3
CHANGING MSHR THRESHOLD FROM 3 TO 5
CHANGING MSHR THRESHOLD FROM 5 TO 6
CHANGING MSHR THRESHOLD FROM 6 TO 8
CHANGING MSHR THRESHOLD FROM 8 TO 10
CHANGING MSHR THRESHOLD FROM 10 TO 11
OFFSET CHANGED FROM 4 TO 2
CHANGING MSHR THRESHOLD FROM 11 TO 10
CHANGING MSHR THRESHOLD FROM 10 TO 8
CHANGING MSHR THRESHOLD FROM 8 TO 6
CHANGING MSHR THRESHOLD FROM 6 TO 5
CHANGING MSHR THRESHOLD FROM 5 TO 3
CHANGING MSHR THRESHOLD FROM 3 TO 2
CHANGING MSHR THRESHOLD FROM 2 TO 3
CHANGING MSHR THRESHOLD FROM 3 TO 5
CHANGING MSHR THRESHOLD FROM 5 TO 6
CHANGING MSHR THRESHOLD FROM 6 TO 8
CHANGING MSHR THRESHOLD FROM 8 TO 10
CHANGING MSHR THRESHOLD FROM 10 TO 11
CHANGING MSHR THRESHOLD FROM 11 TO 13
CHANGING MSHR THRESHOLD FROM 13 TO 15
OFFSET CHANGED FROM 2 TO 1
CHANGING MSHR THRESHOLD FROM 15 TO 13
CHANGING MSHR THRESHOLD FROM 13 TO 11
CHANGING MSHR THRESHOLD FROM 11 TO 10
CHANGING MSHR THRESHOLD FROM 10 TO 8
CHANGING MSHR THRESHOLD FROM 8 TO 6
CHANGING MSHR THRESHOLD FROM 6 TO 5
CHANGING MSHR THRESHOLD FROM 5 TO 3
CHANGING MSHR THRESHOLD FROM 3 TO 2
CHANGING MSHR THRESHOLD FROM 2 TO 3
CHANGING MSHR THRESHOLD FROM 3 TO 5
CHANGING MSHR THRESHOLD FROM 5 TO 6
CHANGING MSHR THRESHOLD FROM 6 TO 8
CHANGING MSHR THRESHOLD FROM 8 TO 10
CHANGING MSHR THRESHOLD FROM 10 TO 11
CHANGING MSHR THRESHOLD FROM 11 TO 13
CHANGING MSHR THRESHOLD FROM 13 TO 15
CHANGING MSHR THRESHOLD FROM 15 TO 16
CHANGING MSHR THRESHOLD FROM 16 TO 18
CHANGING MSHR THRESHOLD FROM 18 TO 19
CHANGING MSHR THRESHOLD FROM 19 TO 21
CHANGING MSHR THRESHOLD FROM 21 TO 23
CHANGING MSHR THRESHOLD FROM 23 TO 24
CHANGING MSHR THRESHOLD FROM 24 TO 26
CHANGING MSHR THRESHOLD FROM 26 TO 28
OFFSET CHANGED FROM 1 TO 2
CHANGING MSHR THRESHOLD FROM 28 TO 26
CHANGING MSHR THRESHOLD FROM 26 TO 24
CHANGING MSHR THRESHOLD FROM 24 TO 23
CHANGING MSHR THRESHOLD FROM 23 TO 21
CHANGING MSHR THRESHOLD FROM 21 TO 19
CHANGING MSHR THRESHOLD FROM 19 TO 18
CHANGING MSHR THRESHOLD FROM 18 TO 16
CHANGING MSHR THRESHOLD FROM 16 TO 15
CHANGING MSHR THRESHOLD FROM 15 TO 13
CHANGING MSHR THRESHOLD FROM 13 TO 11
CHANGING MSHR THRESHOLD FROM 11 TO 10
CHANGING MSHR THRESHOLD FROM 10 TO 8
CHANGING MSHR THRESHOLD FROM 8 TO 6
CHANGING MSHR THRESHOLD FROM 6 TO 5
CHANGING MSHR THRESHOLD FROM 5 TO 3
CHANGING MSHR THRESHOLD FROM 3 TO 2
CHANGING MSHR THRESHOLD FROM 2 TO 3
CHANGING MSHR THRESHOLD FROM 3 TO 5
CHANGING MSHR THRESHOLD FROM 5 TO 6
CHANGING MSHR THRESHOLD FROM 6 TO 8
CHANGING MSHR THRESHOLD FROM 8 TO 10
CHANGING MSHR THRESHOLD FROM 10 TO 11
CHANGING MSHR THRESHOLD FROM 11 TO 13
CHANGING MSHR THRESHOLD FROM 13 TO 15
CHANGING MSHR THRESHOLD FROM 15 TO 16
CHANGING MSHR THRESHOLD FROM 16 TO 18
CHANGING MSHR THRESHOLD FROM 18 TO 19
CHANGING MSHR THRESHOLD FROM 19 TO 21
CHANGING MSHR THRESHOLD FROM 21 TO 23
CHANGING MSHR THRESHOLD FROM 23 TO 24
CHANGING MSHR THRESHOLD FROM 24 TO 23
CHANGING MSHR THRESHOLD FROM 23 TO 21
CHANGING MSHR THRESHOLD FROM 21 TO 19
CHANGING MSHR THRESHOLD FROM 19 TO 18
CHANGING MSHR THRESHOLD FROM 18 TO 16
CHANGING MSHR THRESHOLD FROM 16 TO 15
CHANGING MSHR THRESHOLD FROM 15 TO 13
CHANGING MSHR THRESHOLD FROM 13 TO 11
CHANGING MSHR THRESHOLD FROM 11 TO 10
CHANGING MSHR THRESHOLD FROM 10 TO 8
CHANGING MSHR THRESHOLD FROM 8 TO 6
CHANGING MSHR THRESHOLD FROM 6 TO 5
CHANGING MSHR THRESHOLD FROM 5 TO 3
CHANGING MSHR THRESHOLD FROM 3 TO 2
CHANGING MSHR THRESHOLD FROM 2 TO 3
CHANGING MSHR THRESHOLD FROM 3 TO 5
CHANGING MSHR THRESHOLD FROM 5 TO 6
CHANGING MSHR THRESHOLD FROM 6 TO 8
CHANGING MSHR THRESHOLD FROM 8 TO 10
CHANGING MSHR THRESHOLD FROM 10 TO 11
CHANGING MSHR THRESHOLD FROM 11 TO 13
CHANGING MSHR THRESHOLD FROM 13 TO 15
CHANGING MSHR THRESHOLD FROM 15 TO 16
CHANGING MSHR THRESHOLD FROM 16 TO 18
CHANGING MSHR THRESHOLD FROM 18 TO 19
CHANGING MSHR THRESHOLD FROM 19 TO 21
CHANGING MSHR THRESHOLD FROM 21 TO 23
CHANGING MSHR THRESHOLD FROM 23 TO 21
CHANGING MSHR THRESHOLD FROM 21 TO 19
CHANGING MSHR THRESHOLD FROM 19 TO 18
CHANGING MSHR THRESHOLD FROM 18 TO 16
CHANGING MSHR THRESHOLD FROM 16 TO 15
CHANGING MSHR THRESHOLD FROM 15 TO 13
CHANGING MSHR THRESHOLD FROM 13 TO 11
CHANGING MSHR THRESHOLD FROM 11 TO 10
CHANGING MSHR THRESHOLD FROM 10 TO 8
CHANGING MSHR THRESHOLD FROM 8 TO 6
CHANGING MSHR THRESHOLD FROM 6 TO 5
CHANGING MSHR THRESHOLD FROM 5 TO 3
CHANGING MSHR THRESHOLD FROM 3 TO 2
OFFSET CHANGED FROM 2 TO 4
CHANGING MSHR THRESHOLD FROM 2 TO 3
CHANGING MSHR THRESHOLD FROM 3 TO 5
CHANGING MSHR THRESHOLD FROM 5 TO 6
CHANGING MSHR THRESHOLD FROM 6 TO 8
CHANGING MSHR THRESHOLD FROM 8 TO 10
CHANGING MSHR THRESHOLD FROM 10 TO 11
CHANGING MSHR THRESHOLD FROM 11 TO 13
CHANGING MSHR THRESHOLD FROM 13 TO 15
CHANGING MSHR THRESHOLD FROM 15 TO 16
CHANGING MSHR THRESHOLD FROM 16 TO 18
CHANGING MSHR THRESHOLD FROM 18 TO 19
CHANGING MSHR THRESHOLD FROM 19 TO 21
CHANGING MSHR THRESHOLD FROM 21 TO 19
CHANGING MSHR THRESHOLD FROM 19 TO 18
CHANGING MSHR THRESHOLD FROM 18 TO 16
CHANGING MSHR THRESHOLD FROM 16 TO 15
CHANGING MSHR THRESHOLD FROM 15 TO 13
CHANGING MSHR THRESHOLD FROM 13 TO 11
CHANGING MSHR THRESHOLD FROM 11 TO 10
CHANGING MSHR THRESHOLD FROM 10 TO 8
CHANGING MSHR THRESHOLD FROM 8 TO 6
CHANGING MSHR THRESHOLD FROM 6 TO 5
CHANGING MSHR THRESHOLD FROM 5 TO 3
CHANGING MSHR THRESHOLD FROM 3 TO 2
CHANGING MSHR THRESHOLD FROM 2 TO 3
CHANGING MSHR THRESHOLD FROM 3 TO 5
CHANGING MSHR THRESHOLD FROM 5 TO 6
CHANGING MSHR THRESHOLD FROM 6 TO 8
CHANGING MSHR THRESHOLD FROM 8 TO 10
CHANGING MSHR THRESHOLD FROM 10 TO 11
CHANGING MSHR THRESHOLD FROM 11 TO 13
CHANGING MSHR THRESHOLD FROM 13 TO 15
OFFSET CHANGED FROM 4 TO 2
CHANGING MSHR THRESHOLD FROM 15 TO 16
CHANGING MSHR THRESHOLD FROM 16 TO 18
CHANGING MSHR THRESHOLD FROM 18 TO 19
CHANGING MSHR THRESHOLD FROM 19 TO 21
CHANGING MSHR THRESHOLD FROM 21 TO 23
CHANGING MSHR THRESHOLD FROM 23 TO 24
CHANGING MSHR THRESHOLD FROM 24 TO 26
CHANGING MSHR THRESHOLD FROM 26 TO 28
OFFSET CHANGED FROM 2 TO 1
OFFSET CHANGED FROM 1 TO 2
OFFSET CHANGED FROM 2 TO 5
OFFSET CHANGED FROM 5 TO 1
CHANGING MSHR THRESHOLD FROM 28 TO 26
CHANGING MSHR THRESHOLD FROM 26 TO 24
CHANGING MSHR THRESHOLD FROM 24 TO 23
CHANGING MSHR THRESHOLD FROM 23 TO 21
CHANGING MSHR THRESHOLD FROM 21 TO 19
CHANGING MSHR THRESHOLD FROM 19 TO 18
CHANGING MSHR THRESHOLD FROM 18 TO 16
CHANGING MSHR THRESHOLD FROM 16 TO 15
CHANGING MSHR THRESHOLD FROM 15 TO 13
CHANGING MSHR THRESHOLD FROM 13 TO 11
CHANGING MSHR THRESHOLD FROM 11 TO 10
CHANGING MSHR THRESHOLD FROM 10 TO 8
CHANGING MSHR THRESHOLD FROM 8 TO 6
CHANGING MSHR THRESHOLD FROM 6 TO 5
CHANGING MSHR THRESHOLD FROM 5 TO 3
CHANGING MSHR THRESHOLD FROM 3 TO 2
CHANGING MSHR THRESHOLD FROM 2 TO 3
CHANGING MSHR THRESHOLD FROM 3 TO 5
CHANGING MSHR THRESHOLD FROM 5 TO 6
CHANGING MSHR THRESHOLD FROM 6 TO 8
CHANGING MSHR THRESHOLD FROM 8 TO 10
CHANGING MSHR THRESHOLD FROM 10 TO 11
CHANGING MSHR THRESHOLD FROM 11 TO 13
CHANGING MSHR THRESHOLD FROM 13 TO 15
CHANGING MSHR THRESHOLD FROM 15 TO 16
CHANGING MSHR THRESHOLD FROM 16 TO 18
CHANGING MSHR THRESHOLD FROM 18 TO 19
CHANGING MSHR THRESHOLD FROM 19 TO 21
CHANGING MSHR THRESHOLD FROM 21 TO 23
CHANGING MSHR THRESHOLD FROM 23 TO 24
CHANGING MSHR THRESHOLD FROM 24 TO 23
CHANGING MSHR THRESHOLD FROM 23 TO 21
CHANGING MSHR THRESHOLD FROM 21 TO 19
CHANGING MSHR THRESHOLD FROM 19 TO 18
CHANGING MSHR THRESHOLD FROM 18 TO 16
CHANGING MSHR THRESHOLD FROM 16 TO 15
CHANGING MSHR THRESHOLD FROM 15 TO 13
CHANGING MSHR THRESHOLD FROM 13 TO 11
CHANGING MSHR THRESHOLD FROM 11 TO 10
CHANGING MSHR THRESHOLD FROM 10 TO 8
CHANGING MSHR THRESHOLD FROM 8 TO 6
CHANGING MSHR THRESHOLD FROM 6 TO 5
CHANGING MSHR THRESHOLD FROM 5 TO 3
CHANGING MSHR THRESHOLD FROM 3 TO 2
CHANGING MSHR THRESHOLD FROM 2 TO 3
CHANGING MSHR THRESHOLD FROM 3 TO 5
CHANGING MSHR THRESHOLD FROM 5 TO 6
CHANGING MSHR THRESHOLD FROM 6 TO 8
CHANGING MSHR THRESHOLD FROM 8 TO 10
CHANGING MSHR THRESHOLD FROM 10 TO 11
CHANGING MSHR THRESHOLD FROM 11 TO 13
CHANGING MSHR THRESHOLD FROM 13 TO 15
CHANGING MSHR THRESHOLD FROM 15 TO 16
CHANGING MSHR THRESHOLD FROM 16 TO 18
CHANGING MSHR THRESHOLD FROM 18 TO 19
CHANGING MSHR THRESHOLD FROM 19 TO 21
CHANGING MSHR THRESHOLD FROM 21 TO 23
CHANGING MSHR THRESHOLD FROM 23 TO 24
OFFSET CHANGED FROM 1 TO 5
CHANGING MSHR THRESHOLD FROM 24 TO 23
CHANGING MSHR THRESHOLD FROM 23 TO 21
CHANGING MSHR THRESHOLD FROM 21 TO 19
CHANGING MSHR THRESHOLD FROM 19 TO 18
CHANGING MSHR THRESHOLD FROM 18 TO 16
CHANGING MSHR THRESHOLD FROM 16 TO 15
CHANGING MSHR THRESHOLD FROM 15 TO 13
CHANGING MSHR THRESHOLD FROM 13 TO 11
CHANGING MSHR THRESHOLD FROM 11 TO 10
CHANGING MSHR THRESHOLD FROM 10 TO 8
CHANGING MSHR THRESHOLD FROM 8 TO 6
CHANGING MSHR THRESHOLD FROM 6 TO 5
CHANGING MSHR THRESHOLD FROM 5 TO 3
CHANGING MSHR THRESHOLD FROM 3 TO 2
CHANGING MSHR THRESHOLD FROM 2 TO 3
CHANGING MSHR THRESHOLD FROM 3 TO 5
CHANGING MSHR THRESHOLD FROM 5 TO 6
CHANGING MSHR THRESHOLD FROM 6 TO 8
CHANGING MSHR THRESHOLD FROM 8 TO 10
CHANGING MSHR THRESHOLD FROM 10 TO 11
CHANGING MSHR THRESHOLD FROM 11 TO 13
CHANGING MSHR THRESHOLD FROM 13 TO 15
CHANGING MSHR THRESHOLD FROM 15 TO 16
CHANGING MSHR THRESHOLD FROM 16 TO 18
CHANGING MSHR THRESHOLD FROM 18 TO 19
CHANGING MSHR THRESHOLD FROM 19 TO 18
CHANGING MSHR THRESHOLD FROM 18 TO 16
CHANGING MSHR THRESHOLD FROM 16 TO 15
CHANGING MSHR THRESHOLD FROM 15 TO 13
CHANGING MSHR THRESHOLD FROM 13 TO 11
CHANGING MSHR THRESHOLD FROM 11 TO 10
CHANGING MSHR THRESHOLD FROM 10 TO 8
CHANGING MSHR THRESHOLD FROM 8 TO 6
CHANGING MSHR THRESHOLD FROM 6 TO 5
CHANGING MSHR THRESHOLD FROM 5 TO 3
CHANGING MSHR THRESHOLD FROM 3 TO 2
CHANGING MSHR THRESHOLD FROM 2 TO 3
CHANGING MSHR THRESHOLD FROM 3 TO 5
CHANGING MSHR THRESHOLD FROM 5 TO 6
CHANGING MSHR THRESHOLD FROM 6 TO 8
CHANGING MSHR THRESHOLD FROM 8 TO 10
CHANGING MSHR THRESHOLD FROM 10 TO 11
CHANGING MSHR THRESHOLD FROM 11 TO 13
CHANGING MSHR THRESHOLD FROM 13 TO 15
CHANGING MSHR THRESHOLD FROM 15 TO 16
OFFSET CHANGED FROM 5 TO 2
CHANGING MSHR THRESHOLD FROM 16 TO 15
CHANGING MSHR THRESHOLD FROM 15 TO 13
CHANGING MSHR THRESHOLD FROM 13 TO 11
CHANGING MSHR THRESHOLD FROM 11 TO 10
CHANGING MSHR THRESHOLD FROM 10 TO 8
CHANGING MSHR THRESHOLD FROM 8 TO 6
CHANGING MSHR THRESHOLD FROM 6 TO 5
CHANGING MSHR THRESHOLD FROM 5 TO 3
CHANGING MSHR THRESHOLD FROM 3 TO 2
CHANGING MSHR THRESHOLD FROM 2 TO 3
CHANGING MSHR THRESHOLD FROM 3 TO 5
CHANGING MSHR THRESHOLD FROM 5 TO 6
CHANGING MSHR THRESHOLD FROM 6 TO 8
CHANGING MSHR THRESHOLD FROM 8 TO 10
CHANGING MSHR THRESHOLD FROM 10 TO 11
OFFSET CHANGED FROM 2 TO 1
CHANGING MSHR THRESHOLD FROM 11 TO 10
CHANGING MSHR THRESHOLD FROM 10 TO 8
CHANGING MSHR THRESHOLD FROM 8 TO 6
OFFSET CHANGED FROM 1 TO 1
CHANGING MSHR THRESHOLD FROM 6 TO 8
CHANGING MSHR THRESHOLD FROM 8 TO 10
CHANGING MSHR THRESHOLD FROM 10 TO 11
CHANGING MSHR THRESHOLD FROM 11 TO 13
CHANGING MSHR THRESHOLD FROM 13 TO 15
CHANGING MSHR THRESHOLD FROM 15 TO 16
CHANGING MSHR THRESHOLD FROM 16 TO 15
CHANGING MSHR THRESHOLD FROM 15 TO 13
CHANGING MSHR THRESHOLD FROM 13 TO 11
CHANGING MSHR THRESHOLD FROM 11 TO 10
CHANGING MSHR THRESHOLD FROM 10 TO 8
CHANGING MSHR THRESHOLD FROM 8 TO 6
CHANGING MSHR THRESHOLD FROM 6 TO 5
CHANGING MSHR THRESHOLD FROM 5 TO 3
CHANGING MSHR THRESHOLD FROM 3 TO 2
OFFSET CHANGED FROM 1 TO 1
CHANGING MSHR THRESHOLD FROM 2 TO 3
CHANGING MSHR THRESHOLD FROM 3 TO 5
CHANGING MSHR THRESHOLD FROM 5 TO 6
CHANGING MSHR THRESHOLD FROM 6 TO 8
CHANGING MSHR THRESHOLD FROM 8 TO 10
CHANGING MSHR THRESHOLD FROM 10 TO 11
CHANGING MSHR THRESHOLD FROM 11 TO 13
CHANGING MSHR THRESHOLD FROM 13 TO 15
CHANGING MSHR THRESHOLD FROM 15 TO 16
CHANGING MSHR THRESHOLD FROM 16 TO 18
CHANGING MSHR THRESHOLD FROM 18 TO 19
CHANGING MSHR THRESHOLD FROM 19 TO 21
CHANGING MSHR THRESHOLD FROM 21 TO 19
CHANGING MSHR THRESHOLD FROM 19 TO 18
CHANGING MSHR THRESHOLD FROM 18 TO 16
CHANGING MSHR THRESHOLD FROM 16 TO 15
CHANGING MSHR THRESHOLD FROM 15 TO 13
CHANGING MSHR THRESHOLD FROM 13 TO 11
CHANGING MSHR THRESHOLD FROM 11 TO 10
CHANGING MSHR THRESHOLD FROM 10 TO 8
CHANGING MSHR THRESHOLD FROM 8 TO 6
CHANGING MSHR THRESHOLD FROM 6 TO 5
CHANGING MSHR THRESHOLD FROM 5 TO 3
CHANGING MSHR THRESHOLD FROM 3 TO 2
CHANGING MSHR THRESHOLD FROM 2 TO 3
CHANGING MSHR THRESHOLD FROM 3 TO 5
CHANGING MSHR THRESHOLD FROM 5 TO 6
CHANGING MSHR THRESHOLD FROM 6 TO 8
CHANGING MSHR THRESHOLD FROM 8 TO 10
CHANGING MSHR THRESHOLD FROM 10 TO 11
OFFSET CHANGED FROM 1 TO 1
CHANGING MSHR THRESHOLD FROM 11 TO 10
CHANGING MSHR THRESHOLD FROM 10 TO 8
CHANGING MSHR THRESHOLD FROM 8 TO 6
CHANGING MSHR THRESHOLD FROM 6 TO 5
CHANGING MSHR THRESHOLD FROM 5 TO 3
CHANGING MSHR THRESHOLD FROM 3 TO 2
CHANGING MSHR THRESHOLD FROM 2 TO 3
CHANGING MSHR THRESHOLD FROM 3 TO 5
CHANGING MSHR THRESHOLD FROM 5 TO 6
CHANGING MSHR THRESHOLD FROM 6 TO 8
CHANGING MSHR THRESHOLD FROM 8 TO 10
CHANGING MSHR THRESHOLD FROM 10 TO 11
CHANGING MSHR THRESHOLD FROM 11 TO 13
CHANGING MSHR THRESHOLD FROM 13 TO 11
CHANGING MSHR THRESHOLD FROM 11 TO 10
CHANGING MSHR THRESHOLD FROM 10 TO 8
CHANGING MSHR THRESHOLD FROM 8 TO 6
CHANGING MSHR THRESHOLD FROM 6 TO 5
CHANGING MSHR THRESHOLD FROM 5 TO 3
CHANGING MSHR THRESHOLD FROM 3 TO 2
OFFSET CHANGED FROM 1 TO 1
CHANGING MSHR THRESHOLD FROM 2 TO 3
CHANGING MSHR THRESHOLD FROM 3 TO 5
CHANGING MSHR THRESHOLD FROM 5 TO 6
CHANGING MSHR THRESHOLD FROM 6 TO 8
CHANGING MSHR THRESHOLD FROM 8 TO 10
CHANGING MSHR THRESHOLD FROM 10 TO 11
CHANGING MSHR THRESHOLD FROM 11 TO 13
CHANGING MSHR THRESHOLD FROM 13 TO 15
CHANGING MSHR THRESHOLD FROM 15 TO 13
CHANGING MSHR THRESHOLD FROM 13 TO 11
CHANGING MSHR THRESHOLD FROM 11 TO 10
CHANGING MSHR THRESHOLD FROM 10 TO 8
CHANGING MSHR THRESHOLD FROM 8 TO 6
CHANGING MSHR THRESHOLD FROM 6 TO 5
CHANGING MSHR THRESHOLD FROM 5 TO 3
OFFSET CHANGED FROM 1 TO 2
CHANGING MSHR THRESHOLD FROM 3 TO 5
CHANGING MSHR THRESHOLD FROM 5 TO 6
CHANGING MSHR THRESHOLD FROM 6 TO 8
CHANGING MSHR THRESHOLD FROM 8 TO 10
CHANGING MSHR THRESHOLD FROM 10 TO 11
CHANGING MSHR THRESHOLD FROM 11 TO 13
CHANGING MSHR THRESHOLD FROM 13 TO 15
CHANGING MSHR THRESHOLD FROM 15 TO 16
CHANGING MSHR THRESHOLD FROM 16 TO 18
CHANGING MSHR THRESHOLD FROM 18 TO 16
CHANGING MSHR THRESHOLD FROM 16 TO 15
CHANGING MSHR THRESHOLD FROM 15 TO 13
CHANGING MSHR THRESHOLD FROM 13 TO 11
CHANGING MSHR THRESHOLD FROM 11 TO 10
CHANGING MSHR THRESHOLD FROM 10 TO 8
CHANGING MSHR THRESHOLD FROM 8 TO 6
CHANGING MSHR THRESHOLD FROM 6 TO 5
CHANGING MSHR THRESHOLD FROM 5 TO 3
CHANGING MSHR THRESHOLD FROM 3 TO 2
CHANGING MSHR THRESHOLD FROM 2 TO 3
CHANGING MSHR THRESHOLD FROM 3 TO 5
CHANGING MSHR THRESHOLD FROM 5 TO 6
CHANGING MSHR THRESHOLD FROM 6 TO 8
CHANGING MSHR THRESHOLD FROM 8 TO 10
CHANGING MSHR THRESHOLD FROM 10 TO 11
CHANGING MSHR THRESHOLD FROM 11 TO 13
CHANGING MSHR THRESHOLD FROM 13 TO 15
CHANGING MSHR THRESHOLD FROM 15 TO 16
CHANGING MSHR THRESHOLD FROM 16 TO 18
CHANGING MSHR THRESHOLD FROM 18 TO 19
CHANGING MSHR THRESHOLD FROM 19 TO 21
CHANGING MSHR THRESHOLD FROM 21 TO 23
CHANGING MSHR THRESHOLD FROM 23 TO 24
CHANGING MSHR THRESHOLD FROM 24 TO 26
CHANGING MSHR THRESHOLD FROM 26 TO 28
OFFSET CHANGED FROM 2 TO 1
CHANGING MSHR THRESHOLD FROM 28 TO 26
CHANGING MSHR THRESHOLD FROM 26 TO 24
CHANGING MSHR THRESHOLD FROM 24 TO 23
CHANGING MSHR THRESHOLD FROM 23 TO 21
CHANGING MSHR THRESHOLD FROM 21 TO 19
CHANGING MSHR THRESHOLD FROM 19 TO 18
CHANGING MSHR THRESHOLD FROM 18 TO 16
CHANGING MSHR THRESHOLD FROM 16 TO 15
CHANGING MSHR THRESHOLD FROM 15 TO 13
CHANGING MSHR THRESHOLD FROM 13 TO 11
CHANGING MSHR THRESHOLD FROM 11 TO 10
CHANGING MSHR THRESHOLD FROM 10 TO 8
CHANGING MSHR THRESHOLD FROM 8 TO 6
CHANGING MSHR THRESHOLD FROM 6 TO 5
CHANGING MSHR THRESHOLD FROM 5 TO 3
CHANGING MSHR THRESHOLD FROM 3 TO 2
CHANGING MSHR THRESHOLD FROM 2 TO 3
CHANGING MSHR THRESHOLD FROM 3 TO 5
CHANGING MSHR THRESHOLD FROM 5 TO 6
CHANGING MSHR THRESHOLD FROM 6 TO 8
CHANGING MSHR THRESHOLD FROM 8 TO 10
CHANGING MSHR THRESHOLD FROM 10 TO 11
CHANGING MSHR THRESHOLD FROM 11 TO 13
CHANGING MSHR THRESHOLD FROM 13 TO 15
CHANGING MSHR THRESHOLD FROM 15 TO 16
CHANGING MSHR THRESHOLD FROM 16 TO 18
CHANGING MSHR THRESHOLD FROM 18 TO 19
CHANGING MSHR THRESHOLD FROM 19 TO 21
CHANGING MSHR THRESHOLD FROM 21 TO 23
CHANGING MSHR THRESHOLD FROM 23 TO 21
CHANGING MSHR THRESHOLD FROM 21 TO 19
CHANGING MSHR THRESHOLD FROM 19 TO 18
CHANGING MSHR THRESHOLD FROM 18 TO 16
CHANGING MSHR THRESHOLD FROM 16 TO 15
CHANGING MSHR THRESHOLD FROM 15 TO 13
CHANGING MSHR THRESHOLD FROM 13 TO 11
CHANGING MSHR THRESHOLD FROM 11 TO 10
CHANGING MSHR THRESHOLD FROM 10 TO 8
CHANGING MSHR THRESHOLD FROM 8 TO 6
CHANGING MSHR THRESHOLD FROM 6 TO 5
CHANGING MSHR THRESHOLD FROM 5 TO 3
CHANGING MSHR THRESHOLD FROM 3 TO 2
CHANGING MSHR THRESHOLD FROM 2 TO 3
CHANGING MSHR THRESHOLD FROM 3 TO 5
CHANGING MSHR THRESHOLD FROM 5 TO 6
OFFSET CHANGED FROM 1 TO 1
OFFSET CHANGED FROM 1 TO 9
OFFSET CHANGED FROM 9 TO 10
CHANGING MSHR THRESHOLD FROM 6 TO 8
CHANGING MSHR THRESHOLD FROM 8 TO 10
CHANGING MSHR THRESHOLD FROM 10 TO 11
CHANGING MSHR THRESHOLD FROM 11 TO 13
CHANGING MSHR THRESHOLD FROM 13 TO 15
CHANGING MSHR THRESHOLD FROM 15 TO 16
CHANGING MSHR THRESHOLD FROM 16 TO 18
CHANGING MSHR THRESHOLD FROM 18 TO 19
CHANGING MSHR THRESHOLD FROM 19 TO 21
CHANGING MSHR THRESHOLD FROM 21 TO 23
CHANGING MSHR THRESHOLD FROM 23 TO 24
CHANGING MSHR THRESHOLD FROM 24 TO 26
CHANGING MSHR THRESHOLD FROM 26 TO 28
CHANGING MSHR THRESHOLD FROM 28 TO 26
CHANGING MSHR THRESHOLD FROM 26 TO 24
CHANGING MSHR THRESHOLD FROM 24 TO 23
CHANGING MSHR THRESHOLD FROM 23 TO 21
CHANGING MSHR THRESHOLD FROM 21 TO 19
CHANGING MSHR THRESHOLD FROM 19 TO 18
CHANGING MSHR THRESHOLD FROM 18 TO 16
CHANGING MSHR THRESHOLD FROM 16 TO 15
CHANGING MSHR THRESHOLD FROM 15 TO 16
CHANGING MSHR THRESHOLD FROM 16 TO 18
CHANGING MSHR THRESHOLD FROM 18 TO 19
CHANGING MSHR THRESHOLD FROM 19 TO 21
CHANGING MSHR THRESHOLD FROM 21 TO 23
[...]
NO PREFETCH REQUEST BECAUSE PREFETCH SCORE 8 IS NOT GREATER THAN 20 (MSHR OCC = 2)
NO PREFETCH REQUEST BECAUSE PREFETCH SCORE 8 IS NOT GREATER THAN 20 (MSHR OCC = 2)
CHANGING MSHR THRESHOLD FROM 2 TO 3
CHANGING MSHR THRESHOLD FROM 3 TO 5
CHANGING MSHR THRESHOLD FROM 5 TO 6
CHANGING MSHR THRESHOLD FROM 6 TO 8
CHANGING MSHR THRESHOLD FROM 8 TO 10
CHANGING MSHR THRESHOLD FROM 10 TO 11
CHANGING MSHR THRESHOLD FROM 11 TO 13
CHANGING MSHR THRESHOLD FROM 13 TO 15
CHANGING MSHR THRESHOLD FROM 15 TO 16
CHANGING MSHR THRESHOLD FROM 16 TO 18
CHANGING MSHR THRESHOLD FROM 18 TO 19
CHANGING MSHR THRESHOLD FROM 19 TO 21
CHANGING MSHR THRESHOLD FROM 21 TO 23
CHANGING MSHR THRESHOLD FROM 23 TO 24
CHANGING MSHR THRESHOLD FROM 24 TO 26
CHANGING MSHR THRESHOLD FROM 26 TO 28
CHANGING MSHR THRESHOLD FROM 28 TO 26
CHANGING MSHR THRESHOLD FROM 26 TO 24
CHANGING MSHR THRESHOLD FROM 24 TO 23
CHANGING MSHR THRESHOLD FROM 23 TO 21
CHANGING MSHR THRESHOLD FROM 21 TO 19
CHANGING MSHR THRESHOLD FROM 19 TO 18
CHANGING MSHR THRESHOLD FROM 18 TO 16
CHANGING MSHR THRESHOLD FROM 16 TO 15
CHANGING MSHR THRESHOLD FROM 15 TO 13
CHANGING MSHR THRESHOLD FROM 13 TO 11
CHANGING MSHR THRESHOLD FROM 11 TO 10
CHANGING MSHR THRESHOLD FROM 10 TO 8
CHANGING MSHR THRESHOLD FROM 8 TO 10
CHANGING MSHR THRESHOLD FROM 10 TO 11
CHANGING MSHR THRESHOLD FROM 11 TO 13
CHANGING MSHR THRESHOLD FROM 13 TO 15
CHANGING MSHR THRESHOLD FROM 15 TO 16
CHANGING MSHR THRESHOLD FROM 16 TO 18
CHANGING MSHR THRESHOLD FROM 18 TO 19
CHANGING MSHR THRESHOLD FROM 19 TO 21
CHANGING MSHR THRESHOLD FROM 21 TO 23
CHANGING MSHR THRESHOLD FROM 23 TO 24
CHANGING MSHR THRESHOLD FROM 24 TO 26
CHANGING MSHR THRESHOLD FROM 26 TO 28
CHANGING MSHR THRESHOLD FROM 28 TO 26
CHANGING MSHR THRESHOLD FROM 26 TO 24
CHANGING MSHR THRESHOLD FROM 24 TO 23
CHANGING MSHR THRESHOLD FROM 23 TO 21
CHANGING MSHR THRESHOLD FROM 21 TO 19
CHANGING MSHR THRESHOLD FROM 19 TO 18
CHANGING MSHR THRESHOLD FROM 18 TO 16
CHANGING MSHR THRESHOLD FROM 16 TO 15
CHANGING MSHR THRESHOLD FROM 15 TO 13
CHANGING MSHR THRESHOLD FROM 13 TO 11
CHANGING MSHR THRESHOLD FROM 11 TO 10
CHANGING MSHR THRESHOLD FROM 10 TO 8
CHANGING MSHR THRESHOLD FROM 8 TO 6
CHANGING MSHR THRESHOLD FROM 6 TO 5
CHANGING MSHR THRESHOLD FROM 5 TO 3
CHANGING MSHR THRESHOLD FROM 3 TO 2
OFFSET CHANGED FROM 3 TO 1
NO PREFETCH REQUEST BECAUSE PREFETCH SCORE 16 IS NOT GREATER THAN 20 (MSHR OCC = 2)
CHANGING MSHR THRESHOLD FROM 2 TO 3
CHANGING MSHR THRESHOLD FROM 3 TO 5
CHANGING MSHR THRESHOLD FROM 5 TO 6
CHANGING MSHR THRESHOLD FROM 6 TO 8
CHANGING MSHR THRESHOLD FROM 8 TO 10
CHANGING MSHR THRESHOLD FROM 10 TO 11
CHANGING MSHR THRESHOLD FROM 11 TO 13
CHANGING MSHR THRESHOLD FROM 13 TO 15
CHANGING MSHR THRESHOLD FROM 15 TO 16
CHANGING MSHR THRESHOLD FROM 16 TO 18
CHANGING MSHR THRESHOLD FROM 18 TO 19
CHANGING MSHR THRESHOLD FROM 19 TO 21
CHANGING MSHR THRESHOLD FROM 21 TO 23
CHANGING MSHR THRESHOLD FROM 23 TO 24
CHANGING MSHR THRESHOLD FROM 24 TO 26
CHANGING MSHR THRESHOLD FROM 26 TO 28
OFFSET CHANGED FROM 1 TO 1
Heartbeat CPU 0 instructions: 40000000 cycles: 14927201 heartbeat IPC: 2.67216 cumulative IPC: 2.67967 (Simulation time: 0 hr 1 min 44 sec) 
OFFSET CHANGED FROM 1 TO 4
OFFSET CHANGED FROM 4 TO 5
OFFSET CHANGED FROM 5 TO 6
CHANGING MSHR THRESHOLD FROM 28 TO 26
CHANGING MSHR THRESHOLD FROM 26 TO 24
CHANGING MSHR THRESHOLD FROM 24 TO 23
CHANGING MSHR THRESHOLD FROM 23 TO 21
CHANGING MSHR THRESHOLD FROM 21 TO 19
CHANGING MSHR THRESHOLD FROM 19 TO 18
CHANGING MSHR THRESHOLD FROM 18 TO 16
OFFSET CHANGED FROM 6 TO 6
CHANGING MSHR THRESHOLD FROM 16 TO MAX 28
OFFSET CHANGED FROM 6 TO 7
OFFSET CHANGED FROM 7 TO 3
OFFSET CHANGED FROM 3 TO 4
OFFSET CHANGED FROM 4 TO 2
OFFSET CHANGED FROM 2 TO 4
OFFSET CHANGED FROM 4 TO 1
Heartbeat CPU 0 instructions: 50000000 cycles: 18350499 heartbeat IPC: 2.92116 cumulative IPC: 2.72472 (Simulation time: 0 hr 2 min 7 sec) 

Warmup complete CPU 0 instructions: 50000004 cycles: 18350500 (Simulation time: 0 hr 2 min 7 sec) 

OFFSET CHANGED FROM 1 TO 9
OFFSET CHANGED FROM 9 TO 1
OFFSET CHANGED FROM 1 TO 2
OFFSET CHANGED FROM 2 TO 2
OFFSET CHANGED FROM 2 TO 5
OFFSET CHANGED FROM 5 TO 1
OFFSET CHANGED FROM 1 TO 2
OFFSET CHANGED FROM 2 TO 1
Heartbeat CPU 0 instructions: 60000000 cycles: 23667686 heartbeat IPC: 1.88069 cumulative IPC: 1.88069 (Simulation time: 0 hr 2 min 21 sec) 
OFFSET CHANGED FROM 1 TO 1
OFFSET CHANGED FROM 1 TO 2
OFFSET CHANGED FROM 2 TO 2
OFFSET CHANGED FROM 2 TO 9
OFFSET CHANGED FROM 9 TO 9
OFFSET CHANGED FROM 9 TO 9
OFFSET CHANGED FROM 9 TO 7
OFFSET CHANGED FROM 7 TO 9
OFFSET CHANGED FROM 9 TO 12
OFFSET CHANGED FROM 12 TO 12
OFFSET CHANGED FROM 12 TO 15
OFFSET CHANGED FROM 15 TO 3
OFFSET CHANGED FROM 3 TO 10
Heartbeat CPU 0 instructions: 70000000 cycles: 27852379 heartbeat IPC: 2.38966 cumulative IPC: 2.10485 (Simulation time: 0 hr 2 min 41 sec) 
OFFSET CHANGED FROM 10 TO 12
OFFSET CHANGED FROM 12 TO 8
OFFSET CHANGED FROM 8 TO 9
OFFSET CHANGED FROM 9 TO 2
OFFSET CHANGED FROM 2 TO 14
OFFSET CHANGED FROM 14 TO 11
OFFSET CHANGED FROM 11 TO 1
OFFSET CHANGED FROM 1 TO 4
OFFSET CHANGED FROM 4 TO 2
OFFSET CHANGED FROM 2 TO 9
OFFSET CHANGED FROM 9 TO 4
OFFSET CHANGED FROM 4 TO 2
Heartbeat CPU 0 instructions: 80000001 cycles: 31916892 heartbeat IPC: 2.46032 cumulative IPC: 2.21135 (Simulation time: 0 hr 3 min 0 sec) 
OFFSET CHANGED FROM 2 TO 2
OFFSET CHANGED FROM 2 TO 11
OFFSET CHANGED FROM 11 TO 2
OFFSET CHANGED FROM 2 TO 1
OFFSET CHANGED FROM 1 TO 7
OFFSET CHANGED FROM 7 TO 10
OFFSET CHANGED FROM 10 TO 7
OFFSET CHANGED FROM 7 TO 2
OFFSET CHANGED FROM 2 TO 10
OFFSET CHANGED FROM 10 TO 9
OFFSET CHANGED FROM 9 TO 5
OFFSET CHANGED FROM 5 TO 5
Heartbeat CPU 0 instructions: 90000002 cycles: 35978488 heartbeat IPC: 2.46209 cumulative IPC: 2.26912 (Simulation time: 0 hr 3 min 19 sec) 
OFFSET CHANGED FROM 5 TO 12
OFFSET CHANGED FROM 12 TO 15
OFFSET CHANGED FROM 15 TO 6
OFFSET CHANGED FROM 6 TO 5
OFFSET CHANGED FROM 5 TO 1
OFFSET CHANGED FROM 1 TO 4
OFFSET CHANGED FROM 4 TO 2
OFFSET CHANGED FROM 2 TO 4
OFFSET CHANGED FROM 4 TO 3
OFFSET CHANGED FROM 3 TO 2
OFFSET CHANGED FROM 2 TO 3
OFFSET CHANGED FROM 3 TO 1
Heartbeat CPU 0 instructions: 100000000 cycles: 40031221 heartbeat IPC: 2.46747 cumulative IPC: 2.3062 (Simulation time: 0 hr 3 min 38 sec) 
OFFSET CHANGED FROM 1 TO 9
OFFSET CHANGED FROM 9 TO 7
OFFSET CHANGED FROM 7 TO 6
OFFSET CHANGED FROM 6 TO 6
OFFSET CHANGED FROM 6 TO 8
OFFSET CHANGED FROM 8 TO 3
OFFSET CHANGED FROM 3 TO 14
OFFSET CHANGED FROM 14 TO 1
OFFSET CHANGED FROM 1 TO 15
OFFSET CHANGED FROM 15 TO 11
OFFSET CHANGED FROM 11 TO 8
OFFSET CHANGED FROM 8 TO 15
Heartbeat CPU 0 instructions: 110000000 cycles: 44091488 heartbeat IPC: 2.46289 cumulative IPC: 2.33091 (Simulation time: 0 hr 3 min 58 sec) 
OFFSET CHANGED FROM 15 TO 13
OFFSET CHANGED FROM 13 TO 3
OFFSET CHANGED FROM 3 TO 12
OFFSET CHANGED FROM 12 TO 6
OFFSET CHANGED FROM 6 TO 10
OFFSET CHANGED FROM 10 TO 15
OFFSET CHANGED FROM 15 TO 9
OFFSET CHANGED FROM 9 TO 8
OFFSET CHANGED FROM 8 TO 16
OFFSET CHANGED FROM 16 TO 2
OFFSET CHANGED FROM 2 TO 1
OFFSET CHANGED FROM 1 TO 7
Heartbeat CPU 0 instructions: 120000002 cycles: 48146715 heartbeat IPC: 2.46595 cumulative IPC: 2.34929 (Simulation time: 0 hr 4 min 17 sec) 
OFFSET CHANGED FROM 7 TO 2
OFFSET CHANGED FROM 2 TO 12
OFFSET CHANGED FROM 12 TO 7
OFFSET CHANGED FROM 7 TO 6
OFFSET CHANGED FROM 6 TO 6
OFFSET CHANGED FROM 6 TO 7
OFFSET CHANGED FROM 7 TO 10
OFFSET CHANGED FROM 10 TO 3
OFFSET CHANGED FROM 3 TO 16
OFFSET CHANGED FROM 16 TO 7
OFFSET CHANGED FROM 7 TO 13
OFFSET CHANGED FROM 13 TO 3
OFFSET CHANGED FROM 3 TO 6
Heartbeat CPU 0 instructions: 130000000 cycles: 52205830 heartbeat IPC: 2.46359 cumulative IPC: 2.363 (Simulation time: 0 hr 4 min 37 sec) 
OFFSET CHANGED FROM 6 TO 6
OFFSET CHANGED FROM 6 TO 7
OFFSET CHANGED FROM 7 TO 1
OFFSET CHANGED FROM 1 TO 3
OFFSET CHANGED FROM 3 TO 16
OFFSET CHANGED FROM 16 TO 16
OFFSET CHANGED FROM 16 TO 7
OFFSET CHANGED FROM 7 TO 16
OFFSET CHANGED FROM 16 TO 8
OFFSET CHANGED FROM 8 TO 2
OFFSET CHANGED FROM 2 TO 4
OFFSET CHANGED FROM 4 TO 3
Heartbeat CPU 0 instructions: 140000002 cycles: 56267145 heartbeat IPC: 2.46226 cumulative IPC: 2.37363 (Simulation time: 0 hr 4 min 56 sec) 
OFFSET CHANGED FROM 3 TO 10
OFFSET CHANGED FROM 10 TO 9
OFFSET CHANGED FROM 9 TO 10
OFFSET CHANGED FROM 10 TO 11
OFFSET CHANGED FROM 11 TO 16
OFFSET CHANGED FROM 16 TO 1
OFFSET CHANGED FROM 1 TO 14
OFFSET CHANGED FROM 14 TO 12
OFFSET CHANGED FROM 12 TO 11
OFFSET CHANGED FROM 11 TO 14
OFFSET CHANGED FROM 14 TO 3
OFFSET CHANGED FROM 3 TO 16
Heartbeat CPU 0 instructions: 150000000 cycles: 60321798 heartbeat IPC: 2.4663 cumulative IPC: 2.38258 (Simulation time: 0 hr 5 min 15 sec) 
OFFSET CHANGED FROM 16 TO 16
OFFSET CHANGED FROM 16 TO 2
OFFSET CHANGED FROM 2 TO 15
OFFSET CHANGED FROM 15 TO 7
OFFSET CHANGED FROM 7 TO 10
OFFSET CHANGED FROM 10 TO 6
OFFSET CHANGED FROM 6 TO 5
OFFSET CHANGED FROM 5 TO 6
OFFSET CHANGED FROM 6 TO 2
OFFSET CHANGED FROM 2 TO 15
OFFSET CHANGED FROM 15 TO 6
OFFSET CHANGED FROM 6 TO 14
Heartbeat CPU 0 instructions: 160000002 cycles: 64380831 heartbeat IPC: 2.46364 cumulative IPC: 2.38973 (Simulation time: 0 hr 5 min 35 sec) 
OFFSET CHANGED FROM 14 TO 2
OFFSET CHANGED FROM 2 TO 12
OFFSET CHANGED FROM 12 TO 14
OFFSET CHANGED FROM 14 TO 1
OFFSET CHANGED FROM 1 TO 7
OFFSET CHANGED FROM 7 TO 8
OFFSET CHANGED FROM 8 TO 8
OFFSET CHANGED FROM 8 TO 9
OFFSET CHANGED FROM 9 TO 2
OFFSET CHANGED FROM 2 TO 5
OFFSET CHANGED FROM 5 TO 11
OFFSET CHANGED FROM 11 TO 3
Heartbeat CPU 0 instructions: 170000001 cycles: 68433339 heartbeat IPC: 2.46761 cumulative IPC: 2.39603 (Simulation time: 0 hr 5 min 54 sec) 
OFFSET CHANGED FROM 3 TO 4
OFFSET CHANGED FROM 4 TO 6
OFFSET CHANGED FROM 6 TO 12
OFFSET CHANGED FROM 12 TO 5
OFFSET CHANGED FROM 5 TO 10
OFFSET CHANGED FROM 10 TO 6
OFFSET CHANGED FROM 6 TO 1
OFFSET CHANGED FROM 1 TO 5
OFFSET CHANGED FROM 5 TO 14
OFFSET CHANGED FROM 14 TO 5
OFFSET CHANGED FROM 5 TO 11
OFFSET CHANGED FROM 11 TO 1
Heartbeat CPU 0 instructions: 180000002 cycles: 72494239 heartbeat IPC: 2.46251 cumulative IPC: 2.40102 (Simulation time: 0 hr 6 min 13 sec) 
OFFSET CHANGED FROM 1 TO 2
OFFSET CHANGED FROM 2 TO 3
OFFSET CHANGED FROM 3 TO 9
OFFSET CHANGED FROM 9 TO 8
OFFSET CHANGED FROM 8 TO 1
OFFSET CHANGED FROM 1 TO 9
OFFSET CHANGED FROM 9 TO 6
OFFSET CHANGED FROM 6 TO 1
OFFSET CHANGED FROM 1 TO 16
OFFSET CHANGED FROM 16 TO 5
OFFSET CHANGED FROM 5 TO 6
Heartbeat CPU 0 instructions: 190000000 cycles: 76553114 heartbeat IPC: 2.46374 cumulative IPC: 2.40539 (Simulation time: 0 hr 6 min 32 sec) 
OFFSET CHANGED FROM 6 TO 10
OFFSET CHANGED FROM 10 TO 3
OFFSET CHANGED FROM 3 TO 3
OFFSET CHANGED FROM 3 TO 12
OFFSET CHANGED FROM 12 TO 16
OFFSET CHANGED FROM 16 TO 3
OFFSET CHANGED FROM 3 TO 3
OFFSET CHANGED FROM 3 TO 9
OFFSET CHANGED FROM 9 TO 10
OFFSET CHANGED FROM 10 TO 15
OFFSET CHANGED FROM 15 TO 2
OFFSET CHANGED FROM 2 TO 3
Heartbeat CPU 0 instructions: 200000001 cycles: 80611438 heartbeat IPC: 2.46407 cumulative IPC: 2.40922 (Simulation time: 0 hr 6 min 51 sec) 
OFFSET CHANGED FROM 3 TO 3
OFFSET CHANGED FROM 3 TO 5
OFFSET CHANGED FROM 5 TO 14
OFFSET CHANGED FROM 14 TO 12
OFFSET CHANGED FROM 12 TO 9
OFFSET CHANGED FROM 9 TO 5
OFFSET CHANGED FROM 5 TO 7
OFFSET CHANGED FROM 7 TO 4
OFFSET CHANGED FROM 4 TO 11
OFFSET CHANGED FROM 11 TO 5
OFFSET CHANGED FROM 5 TO 7
OFFSET CHANGED FROM 7 TO 6
Heartbeat CPU 0 instructions: 210000002 cycles: 84676878 heartbeat IPC: 2.45976 cumulative IPC: 2.41231 (Simulation time: 0 hr 7 min 10 sec) 
OFFSET CHANGED FROM 6 TO 3
OFFSET CHANGED FROM 3 TO 5
OFFSET CHANGED FROM 5 TO 14
OFFSET CHANGED FROM 14 TO 16
OFFSET CHANGED FROM 16 TO 1
OFFSET CHANGED FROM 1 TO 2
OFFSET CHANGED FROM 2 TO 7
OFFSET CHANGED FROM 7 TO 13
OFFSET CHANGED FROM 13 TO 4
OFFSET CHANGED FROM 4 TO 5
OFFSET CHANGED FROM 5 TO 5
OFFSET CHANGED FROM 5 TO 3
OFFSET CHANGED FROM 3 TO 3
OFFSET CHANGED FROM 3 TO 3
OFFSET CHANGED FROM 3 TO 4
OFFSET CHANGED FROM 4 TO 3
Heartbeat CPU 0 instructions: 220000000 cycles: 89220276 heartbeat IPC: 2.201 cumulative IPC: 2.39877 (Simulation time: 0 hr 7 min 30 sec) 
OFFSET CHANGED FROM 3 TO 3
OFFSET CHANGED FROM 3 TO 3
OFFSET CHANGED FROM 3 TO 1
OFFSET CHANGED FROM 1 TO 3
OFFSET CHANGED FROM 3 TO 1
OFFSET CHANGED FROM 1 TO 2
OFFSET CHANGED FROM 2 TO 2
OFFSET CHANGED FROM 2 TO 1
OFFSET CHANGED FROM 1 TO 2
OFFSET CHANGED FROM 2 TO 2
OFFSET CHANGED FROM 2 TO 1
OFFSET CHANGED FROM 1 TO 1
OFFSET CHANGED FROM 1 TO 1
OFFSET CHANGED FROM 1 TO 1
OFFSET CHANGED FROM 1 TO 1
OFFSET CHANGED FROM 1 TO 1
OFFSET CHANGED FROM 1 TO 1
OFFSET CHANGED FROM 1 TO 1
OFFSET CHANGED FROM 1 TO 1
OFFSET CHANGED FROM 1 TO 1
OFFSET CHANGED FROM 1 TO 1
OFFSET CHANGED FROM 1 TO 1
OFFSET CHANGED FROM 1 TO 2
OFFSET CHANGED FROM 2 TO 2
OFFSET CHANGED FROM 2 TO 2
OFFSET CHANGED FROM 2 TO 1
OFFSET CHANGED FROM 1 TO 1
OFFSET CHANGED FROM 1 TO 1
OFFSET CHANGED FROM 1 TO 1
OFFSET CHANGED FROM 1 TO 1
OFFSET CHANGED FROM 1 TO 1
OFFSET CHANGED FROM 1 TO 1
Heartbeat CPU 0 instructions: 230000001 cycles: 95568226 heartbeat IPC: 1.57531 cumulative IPC: 2.33107 (Simulation time: 0 hr 7 min 48 sec) 
OFFSET CHANGED FROM 1 TO 1
OFFSET CHANGED FROM 1 TO 1
OFFSET CHANGED FROM 1 TO 1
OFFSET CHANGED FROM 1 TO 2
OFFSET CHANGED FROM 2 TO 1
OFFSET CHANGED FROM 1 TO 1
OFFSET CHANGED FROM 1 TO 1
OFFSET CHANGED FROM 1 TO 1
OFFSET CHANGED FROM 1 TO 1
OFFSET CHANGED FROM 1 TO 1
OFFSET CHANGED FROM 1 TO 1
OFFSET CHANGED FROM 1 TO 1
OFFSET CHANGED FROM 1 TO 1
OFFSET CHANGED FROM 1 TO 1
OFFSET CHANGED FROM 1 TO 1
OFFSET CHANGED FROM 1 TO 1
OFFSET CHANGED FROM 1 TO 2
OFFSET CHANGED FROM 2 TO 2
OFFSET CHANGED FROM 2 TO 2
OFFSET CHANGED FROM 2 TO 2
OFFSET CHANGED FROM 2 TO 2
OFFSET CHANGED FROM 2 TO 1
OFFSET CHANGED FROM 1 TO 2
OFFSET CHANGED FROM 2 TO 2
OFFSET CHANGED FROM 2 TO 3
OFFSET CHANGED FROM 3 TO 4
OFFSET CHANGED FROM 4 TO 4
OFFSET CHANGED FROM 4 TO 3
OFFSET CHANGED FROM 3 TO 1
OFFSET CHANGED FROM 1 TO 1
OFFSET CHANGED FROM 1 TO 1
OFFSET CHANGED FROM 1 TO 1
OFFSET CHANGED FROM 1 TO 1
OFFSET CHANGED FROM 1 TO 1
OFFSET CHANGED FROM 1 TO 1
OFFSET CHANGED FROM 1 TO 1
OFFSET CHANGED FROM 1 TO 1
OFFSET CHANGED FROM 1 TO 1
Heartbeat CPU 0 instructions: 240000001 cycles: 101713209 heartbeat IPC: 1.62734 cumulative IPC: 2.2792 (Simulation time: 0 hr 8 min 6 sec) 
OFFSET CHANGED FROM 1 TO 1
OFFSET CHANGED FROM 1 TO 5
OFFSET CHANGED FROM 5 TO 3
OFFSET CHANGED FROM 3 TO 2
OFFSET CHANGED FROM 2 TO 2
OFFSET CHANGED FROM 2 TO 2
OFFSET CHANGED FROM 2 TO 1
OFFSET CHANGED FROM 1 TO 1
OFFSET CHANGED FROM 1 TO 3
OFFSET CHANGED FROM 3 TO 4
OFFSET CHANGED FROM 4 TO 4
OFFSET CHANGED FROM 4 TO 5
OFFSET CHANGED FROM 5 TO 1
OFFSET CHANGED FROM 1 TO 1
OFFSET CHANGED FROM 1 TO 3
OFFSET CHANGED FROM 3 TO 2
Heartbeat CPU 0 instructions: 250000002 cycles: 107418098 heartbeat IPC: 1.75288 cumulative IPC: 2.24549 (Simulation time: 0 hr 8 min 24 sec) 
OFFSET CHANGED FROM 2 TO 3
OFFSET CHANGED FROM 3 TO 2
OFFSET CHANGED FROM 2 TO 1
OFFSET CHANGED FROM 1 TO 3
OFFSET CHANGED FROM 3 TO 7
OFFSET CHANGED FROM 7 TO 1
OFFSET CHANGED FROM 1 TO 1
OFFSET CHANGED FROM 1 TO 1
OFFSET CHANGED FROM 1 TO 2
Heartbeat CPU 0 instructions: 260000000 cycles: 112649875 heartbeat IPC: 1.9114 cumulative IPC: 2.22695 (Simulation time: 0 hr 8 min 39 sec) 
OFFSET CHANGED FROM 2 TO 5
OFFSET CHANGED FROM 5 TO 2
OFFSET CHANGED FROM 2 TO 15
OFFSET CHANGED FROM 15 TO 7
OFFSET CHANGED FROM 7 TO 4
OFFSET CHANGED FROM 4 TO 2
OFFSET CHANGED FROM 2 TO 10
OFFSET CHANGED FROM 10 TO 1
OFFSET CHANGED FROM 1 TO 16
OFFSET CHANGED FROM 16 TO 11
OFFSET CHANGED FROM 11 TO 2
OFFSET CHANGED FROM 2 TO 8
OFFSET CHANGED FROM 8 TO 6
Heartbeat CPU 0 instructions: 270000002 cycles: 116708778 heartbeat IPC: 2.46372 cumulative IPC: 2.23672 (Simulation time: 0 hr 8 min 59 sec) 
OFFSET CHANGED FROM 6 TO 6
OFFSET CHANGED FROM 6 TO 8
OFFSET CHANGED FROM 8 TO 2
OFFSET CHANGED FROM 2 TO 12
OFFSET CHANGED FROM 12 TO 2
OFFSET CHANGED FROM 2 TO 4
OFFSET CHANGED FROM 4 TO 13
OFFSET CHANGED FROM 13 TO 6
OFFSET CHANGED FROM 6 TO 1
OFFSET CHANGED FROM 1 TO 12
OFFSET CHANGED FROM 12 TO 2
OFFSET CHANGED FROM 2 TO 4
Heartbeat CPU 0 instructions: 280000000 cycles: 120764615 heartbeat IPC: 2.46558 cumulative IPC: 2.24578 (Simulation time: 0 hr 9 min 18 sec) 
OFFSET CHANGED FROM 4 TO 8
OFFSET CHANGED FROM 8 TO 8
OFFSET CHANGED FROM 8 TO 6
OFFSET CHANGED FROM 6 TO 9
OFFSET CHANGED FROM 9 TO 2
OFFSET CHANGED FROM 2 TO 2
OFFSET CHANGED FROM 2 TO 1
OFFSET CHANGED FROM 1 TO 3
OFFSET CHANGED FROM 3 TO 2
OFFSET CHANGED FROM 2 TO 3
OFFSET CHANGED FROM 3 TO 8
OFFSET CHANGED FROM 8 TO 5
Heartbeat CPU 0 instructions: 290000001 cycles: 124814146 heartbeat IPC: 2.46942 cumulative IPC: 2.25429 (Simulation time: 0 hr 9 min 37 sec) 
OFFSET CHANGED FROM 5 TO 7
OFFSET CHANGED FROM 7 TO 2
OFFSET CHANGED FROM 2 TO 11
OFFSET CHANGED FROM 11 TO 7
OFFSET CHANGED FROM 7 TO 2
OFFSET CHANGED FROM 2 TO 9
OFFSET CHANGED FROM 9 TO 6
OFFSET CHANGED FROM 6 TO 3
OFFSET CHANGED FROM 3 TO 5
OFFSET CHANGED FROM 5 TO 12
OFFSET CHANGED FROM 12 TO 1
OFFSET CHANGED FROM 1 TO 2
Heartbeat CPU 0 instructions: 300000002 cycles: 128868951 heartbeat IPC: 2.46621 cumulative IPC: 2.26207 (Simulation time: 0 hr 9 min 56 sec) 
Finished CPU 0 instructions: 250000002 cycles: 110518452 cumulative IPC: 2.26207 (Simulation time: 0 hr 9 min 56 sec) 

ChampSim completed all CPUs

Region of Interest Statistics

CPU 0 cumulative IPC: 2.26207 instructions: 250000002 cycles: 110518452
L1D TOTAL     ACCESS:   64204613  HIT:   62836007  MISS:    1368606
L1D LOAD      ACCESS:   30496526  HIT:   29164874  MISS:    1331652
L1D RFO       ACCESS:   33708087  HIT:   33671133  MISS:      36954
L1D PREFETCH  ACCESS:          0  HIT:          0  MISS:          0
L1D WRITEBACK ACCESS:          0  HIT:          0  MISS:          0
L1D PREFETCH  REQUESTED:          0  ISSUED:          0  USEFUL:          0  USELESS:          0
L1D AVERAGE MISS LATENCY: 21.3141 cycles
L1I TOTAL     ACCESS:   33973076  HIT:   33972131  MISS:        945
L1I LOAD      ACCESS:   33972735  HIT:   33972088  MISS:        647
L1I RFO       ACCESS:          0  HIT:          0  MISS:          0
L1I PREFETCH  ACCESS:        341  HIT:         43  MISS:        298
L1I WRITEBACK ACCESS:          0  HIT:          0  MISS:          0
L1I PREFETCH  REQUESTED:        919  ISSUED:        919  USEFUL:        214  USELESS:         58
L1I AVERAGE MISS LATENCY: 103.47 cycles
L2C TOTAL     ACCESS:    3180645  HIT:    2925450  MISS:     255195
L2C LOAD      ACCESS:    1331811  HIT:    1295120  MISS:      36691
L2C RFO       ACCESS:      36954  HIT:       1633  MISS:      35321
L2C PREFETCH  ACCESS:    1194336  HIT:    1011190  MISS:     183146
L2C WRITEBACK ACCESS:     617544  HIT:     617507  MISS:         37
L2C PREFETCH  REQUESTED:    1200907  ISSUED:    1200907  USEFUL:     173919  USELESS:      10241
L2C AVERAGE MISS LATENCY: 102.353 cycles
LLC TOTAL     ACCESS:     325208  HIT:     191421  MISS:     133787
LLC LOAD      ACCESS:      31239  HIT:      21156  MISS:      10083
LLC RFO       ACCESS:      35320  HIT:       7154  MISS:      28166
LLC PREFETCH  ACCESS:     188599  HIT:      93113  MISS:      95486
LLC WRITEBACK ACCESS:      70050  HIT:      69998  MISS:         52
LLC PREFETCH  REQUESTED:          0  ISSUED:          0  USEFUL:       6763  USELESS:      80473
LLC AVERAGE MISS LATENCY: 143.838 cycles
Major fault: 0 Minor fault: 1832
CPU 0 L1I next line prefetcher final stats
CPU 0 L2C best offset prefetcher final stats

DRAM Statistics
 CHANNEL 0
 RQ ROW_BUFFER_HIT:      58924  ROW_BUFFER_MISS:      74806
 DBUS_CONGESTED:      23855
 WQ ROW_BUFFER_HIT:       9851  ROW_BUFFER_MISS:      32446  FULL:          0

 AVG_CONGESTED_CYCLE: 6

CPU 0 Branch Prediction Accuracy: 92.5963% MPKI: 0.606944 Average ROB Occupancy at Mispredict: 56.608

Branch types
NOT_BRANCH: 247950236 99.1801%
BRANCH_DIRECT_JUMP: 78610 0.031444%
BRANCH_INDIRECT: 11 4.4e-06%
BRANCH_CONDITIONAL: 1899976 0.75999%
BRANCH_DIRECT_CALL: 35426 0.0141704%
BRANCH_INDIRECT_CALL: 4 1.6e-06%
BRANCH_RETURN: 35430 0.014172%
BRANCH_OTHER: 0 0%

