
*** ChampSim Multicore Out-of-Order Simulator ***

Warmup Instructions: 50000000
Simulation Instructions: 250000000
Number of CPUs: 1
LLC sets: 2048
LLC ways: 16
Off-chip DRAM Size: 4096 MB Channels: 1 Width: 64-bit Data Rate: 3200 MT/s

CPU 0 runs /home/wezelis2/ECE511_Project/ChampSim/dpc3_traces/436.cactusADM-1804B.champsimtrace.xz
CPU 0 Bimodal branch predictor
CPU 0 L1I next line prefetcher
INIT BEST RECENT REQUEST TABLE MODULE
INIT DELAY QUEUE MODULE
INIT PREFETCH THROTTLE MODULE
INIT OFFSET SCORE MODULE
INIT BEST OFFSET PREFETCHER
OFFSET CHANGED FROM 1 TO -30
OFFSET CHANGED FROM -30 TO -15
OFFSET CHANGED FROM -15 TO -15
OFFSET CHANGED FROM -15 TO 15
OFFSET CHANGED FROM 15 TO 1
OFFSET CHANGED FROM 1 TO 1
OFFSET CHANGED FROM 1 TO 1
OFFSET CHANGED FROM 1 TO -15
OFFSET CHANGED FROM -15 TO -15
OFFSET CHANGED FROM -15 TO -15
OFFSET CHANGED FROM -15 TO -15
Heartbeat CPU 0 instructions: 10000000 cycles: 6166070 heartbeat IPC: 1.62178 cumulative IPC: 1.62178 (Simulation time: 0 hr 0 min 35 sec) 
OFFSET CHANGED FROM -15 TO 1
OFFSET CHANGED FROM 1 TO -30
OFFSET CHANGED FROM -30 TO 1
OFFSET CHANGED FROM 1 TO 15
OFFSET CHANGED FROM 15 TO 1
OFFSET CHANGED FROM 1 TO 1
OFFSET CHANGED FROM 1 TO -30
OFFSET CHANGED FROM -30 TO 1
OFFSET CHANGED FROM 1 TO 1
CHANGING MSHR THRESHOLD FROM 28 TO 26
CHANGING MSHR THRESHOLD FROM 26 TO 24
CHANGING MSHR THRESHOLD FROM 24 TO 23
CHANGING MSHR THRESHOLD FROM 23 TO 21
CHANGING MSHR THRESHOLD FROM 21 TO 19
CHANGING MSHR THRESHOLD FROM 19 TO 18
CHANGING MSHR THRESHOLD FROM 18 TO 16
CHANGING MSHR THRESHOLD FROM 16 TO 15
CHANGING MSHR THRESHOLD FROM 15 TO 13
CHANGING MSHR THRESHOLD FROM 13 TO 11
OFFSET CHANGED FROM 1 TO 1
CHANGING MSHR THRESHOLD FROM 11 TO MAX 28
OFFSET CHANGED FROM 1 TO 1
OFFSET CHANGED FROM 1 TO 1
OFFSET CHANGED FROM 1 TO 1
OFFSET CHANGED FROM 1 TO 1
OFFSET CHANGED FROM 1 TO 1
OFFSET CHANGED FROM 1 TO 1
OFFSET CHANGED FROM 1 TO 1
OFFSET CHANGED FROM 1 TO 1
OFFSET CHANGED FROM 1 TO 1
OFFSET CHANGED FROM 1 TO 1
OFFSET CHANGED FROM 1 TO 1
OFFSET CHANGED FROM 1 TO 1
OFFSET CHANGED FROM 1 TO 1
OFFSET CHANGED FROM 1 TO 1
Heartbeat CPU 0 instructions: 20000002 cycles: 12216269 heartbeat IPC: 1.65284 cumulative IPC: 1.63716 (Simulation time: 0 hr 1 min 10 sec) 
OFFSET CHANGED FROM 1 TO -30
OFFSET CHANGED FROM -30 TO 1
OFFSET CHANGED FROM 1 TO -30
OFFSET CHANGED FROM -30 TO 1
OFFSET CHANGED FROM 1 TO 1
OFFSET CHANGED FROM 1 TO -15
OFFSET CHANGED FROM -15 TO 1
OFFSET CHANGED FROM 1 TO 1
OFFSET CHANGED FROM 1 TO 1
OFFSET CHANGED FROM 1 TO -30
OFFSET CHANGED FROM -30 TO 1
OFFSET CHANGED FROM 1 TO 1
Heartbeat CPU 0 instructions: 30000000 cycles: 18381872 heartbeat IPC: 1.6219 cumulative IPC: 1.63204 (Simulation time: 0 hr 1 min 46 sec) 
OFFSET CHANGED FROM 1 TO 1
OFFSET CHANGED FROM 1 TO -30
OFFSET CHANGED FROM -30 TO 1
OFFSET CHANGED FROM 1 TO -30
OFFSET CHANGED FROM -30 TO 1
OFFSET CHANGED FROM 1 TO 1
OFFSET CHANGED FROM 1 TO -15
OFFSET CHANGED FROM -15 TO -15
OFFSET CHANGED FROM -15 TO -15
OFFSET CHANGED FROM -15 TO -15
OFFSET CHANGED FROM -15 TO -15
Heartbeat CPU 0 instructions: 40000002 cycles: 24547504 heartbeat IPC: 1.62189 cumulative IPC: 1.62949 (Simulation time: 0 hr 2 min 21 sec) 
CHANGING MSHR THRESHOLD FROM 28 TO 26
CHANGING MSHR THRESHOLD FROM 26 TO 24
CHANGING MSHR THRESHOLD FROM 24 TO 23
CHANGING MSHR THRESHOLD FROM 23 TO 21
CHANGING MSHR THRESHOLD FROM 21 TO 19
CHANGING MSHR THRESHOLD FROM 19 TO 18
CHANGING MSHR THRESHOLD FROM 18 TO 16
CHANGING MSHR THRESHOLD FROM 16 TO 15
CHANGING MSHR THRESHOLD FROM 15 TO 13
OFFSET CHANGED FROM -15 TO 1
CHANGING MSHR THRESHOLD FROM 13 TO MAX 28
OFFSET CHANGED FROM 1 TO 1
OFFSET CHANGED FROM 1 TO 1
OFFSET CHANGED FROM 1 TO 1
OFFSET CHANGED FROM 1 TO 1
OFFSET CHANGED FROM 1 TO 1
OFFSET CHANGED FROM 1 TO 1
OFFSET CHANGED FROM 1 TO 1
OFFSET CHANGED FROM 1 TO 1
OFFSET CHANGED FROM 1 TO 1
OFFSET CHANGED FROM 1 TO 1
OFFSET CHANGED FROM 1 TO 1
OFFSET CHANGED FROM 1 TO 1
OFFSET CHANGED FROM 1 TO 1
OFFSET CHANGED FROM 1 TO 1
OFFSET CHANGED FROM 1 TO 1
OFFSET CHANGED FROM 1 TO 15
OFFSET CHANGED FROM 15 TO 15
OFFSET CHANGED FROM 15 TO 15
OFFSET CHANGED FROM 15 TO 1
OFFSET CHANGED FROM 1 TO 1
OFFSET CHANGED FROM 1 TO 1
OFFSET CHANGED FROM 1 TO 1
Heartbeat CPU 0 instructions: 50000000 cycles: 30597765 heartbeat IPC: 1.65282 cumulative IPC: 1.63411 (Simulation time: 0 hr 2 min 56 sec) 

Warmup complete CPU 0 instructions: 50000002 cycles: 30597766 (Simulation time: 0 hr 2 min 56 sec) 

OFFSET CHANGED FROM 1 TO 15
OFFSET CHANGED FROM 15 TO 1
OFFSET CHANGED FROM 1 TO 1
OFFSET CHANGED FROM 1 TO 15
OFFSET CHANGED FROM 15 TO 1
OFFSET CHANGED FROM 1 TO 1
OFFSET CHANGED FROM 1 TO 1
OFFSET CHANGED FROM 1 TO 1
OFFSET CHANGED FROM 1 TO 1
OFFSET CHANGED FROM 1 TO 15
OFFSET CHANGED FROM 15 TO 1
Heartbeat CPU 0 instructions: 60000001 cycles: 45335466 heartbeat IPC: 0.678532 cumulative IPC: 0.678532 (Simulation time: 0 hr 3 min 32 sec) 
OFFSET CHANGED FROM 1 TO 15
OFFSET CHANGED FROM 15 TO 1
OFFSET CHANGED FROM 1 TO 1
OFFSET CHANGED FROM 1 TO 1
OFFSET CHANGED FROM 1 TO 1
OFFSET CHANGED FROM 1 TO 1
OFFSET CHANGED FROM 1 TO 1
OFFSET CHANGED FROM 1 TO 1
OFFSET CHANGED FROM 1 TO 1
OFFSET CHANGED FROM 1 TO 1
OFFSET CHANGED FROM 1 TO 1
OFFSET CHANGED FROM 1 TO 1
OFFSET CHANGED FROM 1 TO 1
OFFSET CHANGED FROM 1 TO 1
OFFSET CHANGED FROM 1 TO 1
OFFSET CHANGED FROM 1 TO 1
OFFSET CHANGED FROM 1 TO -15
OFFSET CHANGED FROM -15 TO 15
OFFSET CHANGED FROM 15 TO 1
OFFSET CHANGED FROM 1 TO 1
OFFSET CHANGED FROM 1 TO 1
OFFSET CHANGED FROM 1 TO 1
Heartbeat CPU 0 instructions: 70000002 cycles: 74502092 heartbeat IPC: 0.342858 cumulative IPC: 0.455536 (Simulation time: 0 hr 4 min 10 sec) 
OFFSET CHANGED FROM 1 TO 1
OFFSET CHANGED FROM 1 TO 1
OFFSET CHANGED FROM 1 TO 15
OFFSET CHANGED FROM 15 TO 1
OFFSET CHANGED FROM 1 TO 1
OFFSET CHANGED FROM 1 TO 1
OFFSET CHANGED FROM 1 TO 1
OFFSET CHANGED FROM 1 TO 1
OFFSET CHANGED FROM 1 TO 1
OFFSET CHANGED FROM 1 TO -15
OFFSET CHANGED FROM -15 TO -15
Heartbeat CPU 0 instructions: 80000001 cycles: 89759764 heartbeat IPC: 0.655408 cumulative IPC: 0.507082 (Simulation time: 0 hr 4 min 46 sec) 
OFFSET CHANGED FROM -15 TO 1
OFFSET CHANGED FROM 1 TO 1
OFFSET CHANGED FROM 1 TO 15
OFFSET CHANGED FROM 15 TO 1
OFFSET CHANGED FROM 1 TO 1
OFFSET CHANGED FROM 1 TO 1
OFFSET CHANGED FROM 1 TO 1
OFFSET CHANGED FROM 1 TO 1
OFFSET CHANGED FROM 1 TO 1
OFFSET CHANGED FROM 1 TO 1
OFFSET CHANGED FROM 1 TO 1
OFFSET CHANGED FROM 1 TO 1
OFFSET CHANGED FROM 1 TO 1
OFFSET CHANGED FROM 1 TO 1
OFFSET CHANGED FROM 1 TO 1
OFFSET CHANGED FROM 1 TO 1
OFFSET CHANGED FROM 1 TO 1
OFFSET CHANGED FROM 1 TO 1
OFFSET CHANGED FROM 1 TO 1
OFFSET CHANGED FROM 1 TO 15
OFFSET CHANGED FROM 15 TO 15
OFFSET CHANGED FROM 15 TO 1
Heartbeat CPU 0 instructions: 90000000 cycles: 118697779 heartbeat IPC: 0.345566 cumulative IPC: 0.454029 (Simulation time: 0 hr 5 min 23 sec) 
OFFSET CHANGED FROM 1 TO 1
OFFSET CHANGED FROM 1 TO 1
OFFSET CHANGED FROM 1 TO -15
OFFSET CHANGED FROM -15 TO -30
OFFSET CHANGED FROM -30 TO -30
OFFSET CHANGED FROM -30 TO -30
OFFSET CHANGED FROM -30 TO 1
OFFSET CHANGED FROM 1 TO 1
OFFSET CHANGED FROM 1 TO -15
OFFSET CHANGED FROM -15 TO 15
OFFSET CHANGED FROM 15 TO 15
OFFSET CHANGED FROM 15 TO 1
Heartbeat CPU 0 instructions: 100000002 cycles: 134459132 heartbeat IPC: 0.634463 cumulative IPC: 0.481411 (Simulation time: 0 hr 6 min 0 sec) 
OFFSET CHANGED FROM 1 TO 1
OFFSET CHANGED FROM 1 TO 1
OFFSET CHANGED FROM 1 TO 1
OFFSET CHANGED FROM 1 TO 1
OFFSET CHANGED FROM 1 TO 15
OFFSET CHANGED FROM 15 TO 15
OFFSET CHANGED FROM 15 TO 15
OFFSET CHANGED FROM 15 TO 1
OFFSET CHANGED FROM 1 TO 1
OFFSET CHANGED FROM 1 TO 1
OFFSET CHANGED FROM 1 TO 1
OFFSET CHANGED FROM 1 TO 1
OFFSET CHANGED FROM 1 TO 1
OFFSET CHANGED FROM 1 TO 1
OFFSET CHANGED FROM 1 TO 1
OFFSET CHANGED FROM 1 TO 1
OFFSET CHANGED FROM 1 TO 1
OFFSET CHANGED FROM 1 TO 1
OFFSET CHANGED FROM 1 TO 1
PREFETCHING INTO L2 w/ PREFETCH SCORE 31 (MSHR OCC = 28)
OFFSET CHANGED FROM 1 TO 1
OFFSET CHANGED FROM 1 TO 1
OFFSET CHANGED FROM 1 TO 1
Heartbeat CPU 0 instructions: 110000000 cycles: 163088590 heartbeat IPC: 0.349291 cumulative IPC: 0.452862 (Simulation time: 0 hr 6 min 37 sec) 
OFFSET CHANGED FROM 1 TO 1
OFFSET CHANGED FROM 1 TO 1
OFFSET CHANGED FROM 1 TO 1
OFFSET CHANGED FROM 1 TO 1
OFFSET CHANGED FROM 1 TO -15
OFFSET CHANGED FROM -15 TO -30
OFFSET CHANGED FROM -30 TO -30
OFFSET CHANGED FROM -30 TO 1
OFFSET CHANGED FROM 1 TO 1
OFFSET CHANGED FROM 1 TO 1
OFFSET CHANGED FROM 1 TO 1
OFFSET CHANGED FROM 1 TO 1
Heartbeat CPU 0 instructions: 120000000 cycles: 178171119 heartbeat IPC: 0.663019 cumulative IPC: 0.47434 (Simulation time: 0 hr 7 min 14 sec) 
OFFSET CHANGED FROM 1 TO 1
OFFSET CHANGED FROM 1 TO 1
OFFSET CHANGED FROM 1 TO 15
OFFSET CHANGED FROM 15 TO 15
OFFSET CHANGED FROM 15 TO 1
OFFSET CHANGED FROM 1 TO -15
OFFSET CHANGED FROM -15 TO -30
OFFSET CHANGED FROM -30 TO -15
OFFSET CHANGED FROM -15 TO -30
OFFSET CHANGED FROM -30 TO 1
OFFSET CHANGED FROM 1 TO 1
OFFSET CHANGED FROM 1 TO 1
OFFSET CHANGED FROM 1 TO 1
OFFSET CHANGED FROM 1 TO 1
OFFSET CHANGED FROM 1 TO 1
Heartbeat CPU 0 instructions: 130000002 cycles: 197449359 heartbeat IPC: 0.51872 cumulative IPC: 0.479468 (Simulation time: 0 hr 7 min 51 sec) 
OFFSET CHANGED FROM 1 TO 1
OFFSET CHANGED FROM 1 TO 1
OFFSET CHANGED FROM 1 TO 1
OFFSET CHANGED FROM 1 TO 1
OFFSET CHANGED FROM 1 TO 1
OFFSET CHANGED FROM 1 TO 1
OFFSET CHANGED FROM 1 TO 1
OFFSET CHANGED FROM 1 TO 1
OFFSET CHANGED FROM 1 TO 1
OFFSET CHANGED FROM 1 TO 1
OFFSET CHANGED FROM 1 TO 1
OFFSET CHANGED FROM 1 TO -15
OFFSET CHANGED FROM -15 TO -15
OFFSET CHANGED FROM -15 TO -15
OFFSET CHANGED FROM -15 TO -30
OFFSET CHANGED FROM -30 TO -30
OFFSET CHANGED FROM -30 TO 1
OFFSET CHANGED FROM 1 TO -15
OFFSET CHANGED FROM -15 TO -15
OFFSET CHANGED FROM -15 TO -15
Heartbeat CPU 0 instructions: 140000001 cycles: 224083712 heartbeat IPC: 0.375455 cumulative IPC: 0.46515 (Simulation time: 0 hr 8 min 30 sec) 
OFFSET CHANGED FROM -15 TO -15
OFFSET CHANGED FROM -15 TO -30
OFFSET CHANGED FROM -30 TO -30
OFFSET CHANGED FROM -30 TO 1
OFFSET CHANGED FROM 1 TO -15
OFFSET CHANGED FROM -15 TO -15
OFFSET CHANGED FROM -15 TO -15
OFFSET CHANGED FROM -15 TO -15
OFFSET CHANGED FROM -15 TO -30
OFFSET CHANGED FROM -30 TO -30
OFFSET CHANGED FROM -30 TO -15
OFFSET CHANGED FROM -15 TO -15
Heartbeat CPU 0 instructions: 150000000 cycles: 241055006 heartbeat IPC: 0.58923 cumulative IPC: 0.475156 (Simulation time: 0 hr 9 min 8 sec) 
OFFSET CHANGED FROM -15 TO -15
OFFSET CHANGED FROM -15 TO -15
OFFSET CHANGED FROM -15 TO -15
OFFSET CHANGED FROM -15 TO 1
OFFSET CHANGED FROM 1 TO 1
OFFSET CHANGED FROM 1 TO 1
OFFSET CHANGED FROM 1 TO 1
OFFSET CHANGED FROM 1 TO 1
OFFSET CHANGED FROM 1 TO 1
OFFSET CHANGED FROM 1 TO 1
OFFSET CHANGED FROM 1 TO 1
OFFSET CHANGED FROM 1 TO 1
OFFSET CHANGED FROM 1 TO 1
OFFSET CHANGED FROM 1 TO 1
PREFETCHING INTO L2 w/ PREFETCH SCORE 31 (MSHR OCC = 28)
OFFSET CHANGED FROM 1 TO 1
OFFSET CHANGED FROM 1 TO 15
OFFSET CHANGED FROM 15 TO 15
OFFSET CHANGED FROM 15 TO 1
OFFSET CHANGED FROM 1 TO 15
OFFSET CHANGED FROM 15 TO 1
OFFSET CHANGED FROM 1 TO -15
OFFSET CHANGED FROM -15 TO -30
Heartbeat CPU 0 instructions: 160000000 cycles: 271089224 heartbeat IPC: 0.332954 cumulative IPC: 0.457397 (Simulation time: 0 hr 9 min 46 sec) 
OFFSET CHANGED FROM -30 TO -30
OFFSET CHANGED FROM -30 TO -15
OFFSET CHANGED FROM -15 TO -30
OFFSET CHANGED FROM -30 TO -30
OFFSET CHANGED FROM -30 TO -30
OFFSET CHANGED FROM -30 TO -30
OFFSET CHANGED FROM -30 TO -15
OFFSET CHANGED FROM -15 TO -15
OFFSET CHANGED FROM -15 TO -30
OFFSET CHANGED FROM -30 TO -30
OFFSET CHANGED FROM -30 TO -30
OFFSET CHANGED FROM -30 TO 1
Heartbeat CPU 0 instructions: 170000001 cycles: 288160453 heartbeat IPC: 0.585781 cumulative IPC: 0.465906 (Simulation time: 0 hr 10 min 24 sec) 
OFFSET CHANGED FROM 1 TO 1
OFFSET CHANGED FROM 1 TO 1
OFFSET CHANGED FROM 1 TO 15
OFFSET CHANGED FROM 15 TO 1
OFFSET CHANGED FROM 1 TO 15
OFFSET CHANGED FROM 15 TO 15
OFFSET CHANGED FROM 15 TO 1
OFFSET CHANGED FROM 1 TO 1
OFFSET CHANGED FROM 1 TO 1
OFFSET CHANGED FROM 1 TO 1
OFFSET CHANGED FROM 1 TO 1
OFFSET CHANGED FROM 1 TO 1
OFFSET CHANGED FROM 1 TO 1
OFFSET CHANGED FROM 1 TO 1
OFFSET CHANGED FROM 1 TO 1
OFFSET CHANGED FROM 1 TO 1
OFFSET CHANGED FROM 1 TO 1
OFFSET CHANGED FROM 1 TO 1
OFFSET CHANGED FROM 1 TO 1
OFFSET CHANGED FROM 1 TO 15
OFFSET CHANGED FROM 15 TO 1
OFFSET CHANGED FROM 1 TO 15
OFFSET CHANGED FROM 15 TO 15
Heartbeat CPU 0 instructions: 180000003 cycles: 317428744 heartbeat IPC: 0.341667 cumulative IPC: 0.453229 (Simulation time: 0 hr 11 min 1 sec) 
OFFSET CHANGED FROM 15 TO 15
OFFSET CHANGED FROM 15 TO 1
OFFSET CHANGED FROM 1 TO -15
OFFSET CHANGED FROM -15 TO -15
OFFSET CHANGED FROM -15 TO -30
OFFSET CHANGED FROM -30 TO 1
OFFSET CHANGED FROM 1 TO 1
OFFSET CHANGED FROM 1 TO 15
OFFSET CHANGED FROM 15 TO 1
OFFSET CHANGED FROM 1 TO 1
OFFSET CHANGED FROM 1 TO 15
Heartbeat CPU 0 instructions: 190000003 cycles: 333001890 heartbeat IPC: 0.642131 cumulative IPC: 0.462957 (Simulation time: 0 hr 11 min 38 sec) 
OFFSET CHANGED FROM 15 TO 1
OFFSET CHANGED FROM 1 TO 1
OFFSET CHANGED FROM 1 TO 1
OFFSET CHANGED FROM 1 TO 15
OFFSET CHANGED FROM 15 TO 1
OFFSET CHANGED FROM 1 TO 15
OFFSET CHANGED FROM 15 TO 1
OFFSET CHANGED FROM 1 TO 15
OFFSET CHANGED FROM 15 TO 1
OFFSET CHANGED FROM 1 TO 1
OFFSET CHANGED FROM 1 TO 1
OFFSET CHANGED FROM 1 TO 1
OFFSET CHANGED FROM 1 TO 1
OFFSET CHANGED FROM 1 TO 1
OFFSET CHANGED FROM 1 TO 1
OFFSET CHANGED FROM 1 TO 1
OFFSET CHANGED FROM 1 TO 1
OFFSET CHANGED FROM 1 TO 1
OFFSET CHANGED FROM 1 TO 1
PREFETCHING INTO L2 w/ PREFETCH SCORE 31 (MSHR OCC = 28)
OFFSET CHANGED FROM 1 TO 1
OFFSET CHANGED FROM 1 TO 1
OFFSET CHANGED FROM 1 TO 15
Heartbeat CPU 0 instructions: 200000002 cycles: 361958351 heartbeat IPC: 0.345346 cumulative IPC: 0.452679 (Simulation time: 0 hr 12 min 15 sec) 
OFFSET CHANGED FROM 15 TO 1
OFFSET CHANGED FROM 1 TO 1
OFFSET CHANGED FROM 1 TO 1
OFFSET CHANGED FROM 1 TO -15
OFFSET CHANGED FROM -15 TO -30
OFFSET CHANGED FROM -30 TO -30
OFFSET CHANGED FROM -30 TO 1
OFFSET CHANGED FROM 1 TO 15
OFFSET CHANGED FROM 15 TO 15
OFFSET CHANGED FROM 15 TO 1
OFFSET CHANGED FROM 1 TO 1
Heartbeat CPU 0 instructions: 210000000 cycles: 377470104 heartbeat IPC: 0.644672 cumulative IPC: 0.461265 (Simulation time: 0 hr 12 min 51 sec) 
OFFSET CHANGED FROM 1 TO 1
OFFSET CHANGED FROM 1 TO 1
OFFSET CHANGED FROM 1 TO 15
OFFSET CHANGED FROM 15 TO 1
OFFSET CHANGED FROM 1 TO 1
OFFSET CHANGED FROM 1 TO 1
OFFSET CHANGED FROM 1 TO 15
OFFSET CHANGED FROM 15 TO 1
OFFSET CHANGED FROM 1 TO 1
OFFSET CHANGED FROM 1 TO 1
OFFSET CHANGED FROM 1 TO 1
OFFSET CHANGED FROM 1 TO 1
OFFSET CHANGED FROM 1 TO 1
OFFSET CHANGED FROM 1 TO 1
OFFSET CHANGED FROM 1 TO 1
OFFSET CHANGED FROM 1 TO 1
OFFSET CHANGED FROM 1 TO 1
Heartbeat CPU 0 instructions: 220000000 cycles: 399380681 heartbeat IPC: 0.456401 cumulative IPC: 0.460976 (Simulation time: 0 hr 13 min 28 sec) 
OFFSET CHANGED FROM 1 TO 1
OFFSET CHANGED FROM 1 TO 1
OFFSET CHANGED FROM 1 TO 1
OFFSET CHANGED FROM 1 TO 1
PREFETCHING INTO L2 w/ PREFETCH SCORE 31 (MSHR OCC = 28)
OFFSET CHANGED FROM 1 TO 1
OFFSET CHANGED FROM 1 TO 1
PREFETCHING INTO L2 w/ PREFETCH SCORE 31 (MSHR OCC = 28)
OFFSET CHANGED FROM 1 TO 1
OFFSET CHANGED FROM 1 TO 15
OFFSET CHANGED FROM 15 TO 1
OFFSET CHANGED FROM 1 TO 1
OFFSET CHANGED FROM 1 TO 1
OFFSET CHANGED FROM 1 TO 1
OFFSET CHANGED FROM 1 TO 1
OFFSET CHANGED FROM 1 TO 15
OFFSET CHANGED FROM 15 TO 1
OFFSET CHANGED FROM 1 TO 1
OFFSET CHANGED FROM 1 TO 1
Heartbeat CPU 0 instructions: 230000000 cycles: 421180647 heartbeat IPC: 0.458716 cumulative IPC: 0.46085 (Simulation time: 0 hr 14 min 5 sec) 
OFFSET CHANGED FROM 1 TO 1
OFFSET CHANGED FROM 1 TO 1
OFFSET CHANGED FROM 1 TO 15
OFFSET CHANGED FROM 15 TO 1
OFFSET CHANGED FROM 1 TO 15
OFFSET CHANGED FROM 15 TO 1
OFFSET CHANGED FROM 1 TO 15
OFFSET CHANGED FROM 15 TO 15
OFFSET CHANGED FROM 15 TO 1
OFFSET CHANGED FROM 1 TO 15
OFFSET CHANGED FROM 15 TO 1
Heartbeat CPU 0 instructions: 240000000 cycles: 436153552 heartbeat IPC: 0.667873 cumulative IPC: 0.468493 (Simulation time: 0 hr 14 min 42 sec) 
OFFSET CHANGED FROM 1 TO -15
OFFSET CHANGED FROM -15 TO -30
OFFSET CHANGED FROM -30 TO 1
OFFSET CHANGED FROM 1 TO 1
OFFSET CHANGED FROM 1 TO 1
OFFSET CHANGED FROM 1 TO 1
OFFSET CHANGED FROM 1 TO 1
OFFSET CHANGED FROM 1 TO 1
OFFSET CHANGED FROM 1 TO 1
OFFSET CHANGED FROM 1 TO 1
OFFSET CHANGED FROM 1 TO 1
OFFSET CHANGED FROM 1 TO 1
OFFSET CHANGED FROM 1 TO 1
OFFSET CHANGED FROM 1 TO 1
OFFSET CHANGED FROM 1 TO 1
OFFSET CHANGED FROM 1 TO 15
OFFSET CHANGED FROM 15 TO 1
OFFSET CHANGED FROM 1 TO 1
OFFSET CHANGED FROM 1 TO 15
OFFSET CHANGED FROM 15 TO 1
OFFSET CHANGED FROM 1 TO -15
OFFSET CHANGED FROM -15 TO -30
Heartbeat CPU 0 instructions: 250000000 cycles: 466170127 heartbeat IPC: 0.333149 cumulative IPC: 0.459166 (Simulation time: 0 hr 15 min 20 sec) 
OFFSET CHANGED FROM -30 TO -30
OFFSET CHANGED FROM -30 TO 1
OFFSET CHANGED FROM 1 TO 1
OFFSET CHANGED FROM 1 TO 1
OFFSET CHANGED FROM 1 TO 1
OFFSET CHANGED FROM 1 TO 1
OFFSET CHANGED FROM 1 TO 1
OFFSET CHANGED FROM 1 TO 15
OFFSET CHANGED FROM 15 TO 1
OFFSET CHANGED FROM 1 TO 1
OFFSET CHANGED FROM 1 TO -15
Heartbeat CPU 0 instructions: 260000000 cycles: 481355552 heartbeat IPC: 0.658526 cumulative IPC: 0.465882 (Simulation time: 0 hr 15 min 57 sec) 
OFFSET CHANGED FROM -15 TO -30
OFFSET CHANGED FROM -30 TO 1
OFFSET CHANGED FROM 1 TO 1
OFFSET CHANGED FROM 1 TO 1
OFFSET CHANGED FROM 1 TO -15
OFFSET CHANGED FROM -15 TO 1
OFFSET CHANGED FROM 1 TO 1
OFFSET CHANGED FROM 1 TO 1
OFFSET CHANGED FROM 1 TO 1
OFFSET CHANGED FROM 1 TO 1
OFFSET CHANGED FROM 1 TO 1
OFFSET CHANGED FROM 1 TO 1
OFFSET CHANGED FROM 1 TO 1
OFFSET CHANGED FROM 1 TO 1
OFFSET CHANGED FROM 1 TO 1
OFFSET CHANGED FROM 1 TO 1
OFFSET CHANGED FROM 1 TO 1
PREFETCHING INTO L2 w/ PREFETCH SCORE 31 (MSHR OCC = 28)
OFFSET CHANGED FROM 1 TO 1
OFFSET CHANGED FROM 1 TO 1
OFFSET CHANGED FROM 1 TO 1
OFFSET CHANGED FROM 1 TO -15
OFFSET CHANGED FROM -15 TO -30
Heartbeat CPU 0 instructions: 270000003 cycles: 511011946 heartbeat IPC: 0.337196 cumulative IPC: 0.457938 (Simulation time: 0 hr 16 min 35 sec) 
OFFSET CHANGED FROM -30 TO 1
OFFSET CHANGED FROM 1 TO 1
OFFSET CHANGED FROM 1 TO 15
OFFSET CHANGED FROM 15 TO 1
OFFSET CHANGED FROM 1 TO 1
OFFSET CHANGED FROM 1 TO 1
OFFSET CHANGED FROM 1 TO 1
OFFSET CHANGED FROM 1 TO 1
OFFSET CHANGED FROM 1 TO 1
OFFSET CHANGED FROM 1 TO 1
OFFSET CHANGED FROM 1 TO 1
Heartbeat CPU 0 instructions: 280000000 cycles: 525952711 heartbeat IPC: 0.66931 cumulative IPC: 0.464314 (Simulation time: 0 hr 17 min 12 sec) 
OFFSET CHANGED FROM 1 TO 1
OFFSET CHANGED FROM 1 TO 1
OFFSET CHANGED FROM 1 TO 1
OFFSET CHANGED FROM 1 TO 1
OFFSET CHANGED FROM 1 TO 1
OFFSET CHANGED FROM 1 TO 1
OFFSET CHANGED FROM 1 TO 1
OFFSET CHANGED FROM 1 TO 1
OFFSET CHANGED FROM 1 TO 1
OFFSET CHANGED FROM 1 TO 1
OFFSET CHANGED FROM 1 TO 1
OFFSET CHANGED FROM 1 TO 1
OFFSET CHANGED FROM 1 TO 1
OFFSET CHANGED FROM 1 TO 1
OFFSET CHANGED FROM 1 TO 1
OFFSET CHANGED FROM 1 TO 1
OFFSET CHANGED FROM 1 TO 1
OFFSET CHANGED FROM 1 TO 1
PREFETCHING INTO L2 w/ PREFETCH SCORE 31 (MSHR OCC = 28)
OFFSET CHANGED FROM 1 TO 1
OFFSET CHANGED FROM 1 TO 1
OFFSET CHANGED FROM 1 TO 1
OFFSET CHANGED FROM 1 TO -15
OFFSET CHANGED FROM -15 TO -30
Heartbeat CPU 0 instructions: 290000000 cycles: 555171982 heartbeat IPC: 0.34224 cumulative IPC: 0.457514 (Simulation time: 0 hr 17 min 49 sec) 
OFFSET CHANGED FROM -30 TO -30
OFFSET CHANGED FROM -30 TO -30
OFFSET CHANGED FROM -30 TO -30
OFFSET CHANGED FROM -30 TO -15
OFFSET CHANGED FROM -15 TO 15
OFFSET CHANGED FROM 15 TO 15
OFFSET CHANGED FROM 15 TO 1
OFFSET CHANGED FROM 1 TO 15
OFFSET CHANGED FROM 15 TO 1
OFFSET CHANGED FROM 1 TO 15
OFFSET CHANGED FROM 15 TO 15
OFFSET CHANGED FROM 15 TO 1
Heartbeat CPU 0 instructions: 300000001 cycles: 571192980 heartbeat IPC: 0.624181 cumulative IPC: 0.462453 (Simulation time: 0 hr 18 min 27 sec) 
Finished CPU 0 instructions: 250000003 cycles: 540595215 cumulative IPC: 0.462453 (Simulation time: 0 hr 18 min 27 sec) 

ChampSim completed all CPUs

Region of Interest Statistics

CPU 0 cumulative IPC: 0.462453 instructions: 250000003 cycles: 540595215
L1D TOTAL     ACCESS:  116810079  HIT:  114914890  MISS:    1895189
L1D LOAD      ACCESS:   79325369  HIT:   77806429  MISS:    1518940
L1D RFO       ACCESS:   37484710  HIT:   37108461  MISS:     376249
L1D PREFETCH  ACCESS:          0  HIT:          0  MISS:          0
L1D WRITEBACK ACCESS:          0  HIT:          0  MISS:          0
L1D PREFETCH  REQUESTED:          0  ISSUED:          0  USEFUL:          0  USELESS:          0
L1D AVERAGE MISS LATENCY: 134.329 cycles
L1I TOTAL     ACCESS:   38951470  HIT:   38951470  MISS:          0
L1I LOAD      ACCESS:   38951470  HIT:   38951470  MISS:          0
L1I RFO       ACCESS:          0  HIT:          0  MISS:          0
L1I PREFETCH  ACCESS:          0  HIT:          0  MISS:          0
L1I WRITEBACK ACCESS:          0  HIT:          0  MISS:          0
L1I PREFETCH  REQUESTED:          0  ISSUED:          0  USEFUL:          0  USELESS:          0
L1I AVERAGE MISS LATENCY: -nan cycles
L2C TOTAL     ACCESS:    3611638  HIT:    2317748  MISS:    1293890
L2C LOAD      ACCESS:    1518940  HIT:    1294582  MISS:     224358
L2C RFO       ACCESS:     376249  HIT:        170  MISS:     376079
L2C PREFETCH  ACCESS:    1325883  HIT:     632740  MISS:     693143
L2C WRITEBACK ACCESS:     390566  HIT:     390256  MISS:        310
L2C PREFETCH  REQUESTED:    1331360  ISSUED:    1331360  USEFUL:     690723  USELESS:       2409
L2C AVERAGE MISS LATENCY: 266.316 cycles
LLC TOTAL     ACCESS:    1670033  HIT:     376532  MISS:    1293501
LLC LOAD      ACCESS:     219962  HIT:         17  MISS:     219945
LLC RFO       ACCESS:     376079  HIT:          8  MISS:     376071
LLC PREFETCH  ACCESS:     697545  HIT:        464  MISS:     697081
LLC WRITEBACK ACCESS:     376447  HIT:     376043  MISS:        404
LLC PREFETCH  REQUESTED:          0  ISSUED:          0  USEFUL:         17  USELESS:     706580
LLC AVERAGE MISS LATENCY: 208.034 cycles
Major fault: 0 Minor fault: 12407
CPU 0 L1I next line prefetcher final stats
CPU 0 L2C best offset prefetcher final stats

DRAM Statistics
 CHANNEL 0
 RQ ROW_BUFFER_HIT:     318187  ROW_BUFFER_MISS:     974910
 DBUS_CONGESTED:     312303
 WQ ROW_BUFFER_HIT:      63569  ROW_BUFFER_MISS:     314362  FULL:          0

 AVG_CONGESTED_CYCLE: 6

CPU 0 Branch Prediction Accuracy: 99.1736% MPKI: 0.010632 Average ROB Occupancy at Mispredict: 349.102

Branch types
NOT_BRANCH: 249678349 99.8713%
BRANCH_DIRECT_JUMP: 2625 0.00105%
BRANCH_INDIRECT: 0 0%
BRANCH_CONDITIONAL: 319020 0.127608%
BRANCH_DIRECT_CALL: 0 0%
BRANCH_INDIRECT_CALL: 0 0%
BRANCH_RETURN: 0 0%
BRANCH_OTHER: 0 0%

