
*** ChampSim Multicore Out-of-Order Simulator ***

Warmup Instructions: 50000000
Simulation Instructions: 250000000
Number of CPUs: 1
LLC sets: 2048
LLC ways: 16
Off-chip DRAM Size: 4096 MB Channels: 1 Width: 64-bit Data Rate: 3200 MT/s

CPU 0 runs /home/wezelis2/ECE511_Project/ChampSim/dpc3_traces/482.sphinx3-1100B.champsimtrace.xz
CPU 0 Bimodal branch predictor
CPU 0 L1I next line prefetcher
INIT BEST RECENT REQUEST TABLE MODULE
INIT DELAY QUEUE MODULE
INIT PREFETCH THROTTLE MODULE
INIT OFFSET SCORE MODULE
INIT BEST OFFSET PREFETCHER
OFFSET CHANGED FROM 1 TO 2
OFFSET CHANGED FROM 2 TO 2
OFFSET CHANGED FROM 2 TO 3
OFFSET CHANGED FROM 3 TO 1
OFFSET CHANGED FROM 1 TO 3
OFFSET CHANGED FROM 3 TO 2
OFFSET CHANGED FROM 2 TO 2
OFFSET CHANGED FROM 2 TO 2
OFFSET CHANGED FROM 2 TO 2
OFFSET CHANGED FROM 2 TO 1
OFFSET CHANGED FROM 1 TO 2
OFFSET CHANGED FROM 2 TO 3
OFFSET CHANGED FROM 3 TO 2
OFFSET CHANGED FROM 2 TO 1
OFFSET CHANGED FROM 1 TO 1
OFFSET CHANGED FROM 1 TO 1
OFFSET CHANGED FROM 1 TO 1
OFFSET CHANGED FROM 1 TO 2
OFFSET CHANGED FROM 2 TO 2
OFFSET CHANGED FROM 2 TO 1
OFFSET CHANGED FROM 1 TO 3
OFFSET CHANGED FROM 3 TO 2
OFFSET CHANGED FROM 2 TO 2
OFFSET CHANGED FROM 2 TO 2
OFFSET CHANGED FROM 2 TO 4
OFFSET CHANGED FROM 4 TO 4
OFFSET CHANGED FROM 4 TO 4
OFFSET CHANGED FROM 4 TO 5
OFFSET CHANGED FROM 5 TO 5
OFFSET CHANGED FROM 5 TO 2
OFFSET CHANGED FROM 2 TO 3
OFFSET CHANGED FROM 3 TO 2
OFFSET CHANGED FROM 2 TO 4
OFFSET CHANGED FROM 4 TO 2
OFFSET CHANGED FROM 2 TO 1
OFFSET CHANGED FROM 1 TO 2
OFFSET CHANGED FROM 2 TO 1
OFFSET CHANGED FROM 1 TO 2
OFFSET CHANGED FROM 2 TO 1
OFFSET CHANGED FROM 1 TO 4
OFFSET CHANGED FROM 4 TO 2
OFFSET CHANGED FROM 2 TO 1
OFFSET CHANGED FROM 1 TO 3
OFFSET CHANGED FROM 3 TO 1
OFFSET CHANGED FROM 1 TO 3
OFFSET CHANGED FROM 3 TO 2
OFFSET CHANGED FROM 2 TO 2
OFFSET CHANGED FROM 2 TO 1
OFFSET CHANGED FROM 1 TO 2
OFFSET CHANGED FROM 2 TO 2
OFFSET CHANGED FROM 2 TO 3
OFFSET CHANGED FROM 3 TO 2
OFFSET CHANGED FROM 2 TO 1
OFFSET CHANGED FROM 1 TO 2
OFFSET CHANGED FROM 2 TO 2
OFFSET CHANGED FROM 2 TO 1
OFFSET CHANGED FROM 1 TO 1
OFFSET CHANGED FROM 1 TO 3
OFFSET CHANGED FROM 3 TO 4
OFFSET CHANGED FROM 4 TO 4
OFFSET CHANGED FROM 4 TO 4
Heartbeat CPU 0 instructions: 10000001 cycles: 3439630 heartbeat IPC: 2.90729 cumulative IPC: 2.90729 (Simulation time: 0 hr 0 min 20 sec) 
OFFSET CHANGED FROM 4 TO 5
OFFSET CHANGED FROM 5 TO 4
OFFSET CHANGED FROM 4 TO 1
OFFSET CHANGED FROM 1 TO 2
OFFSET CHANGED FROM 2 TO 2
OFFSET CHANGED FROM 2 TO 3
OFFSET CHANGED FROM 3 TO 3
OFFSET CHANGED FROM 3 TO 2
OFFSET CHANGED FROM 2 TO 3
OFFSET CHANGED FROM 3 TO 1
OFFSET CHANGED FROM 1 TO 4
OFFSET CHANGED FROM 4 TO 2
OFFSET CHANGED FROM 2 TO 2
OFFSET CHANGED FROM 2 TO 4
OFFSET CHANGED FROM 4 TO 1
OFFSET CHANGED FROM 1 TO 1
OFFSET CHANGED FROM 1 TO 3
OFFSET CHANGED FROM 3 TO 1
OFFSET CHANGED FROM 1 TO 2
OFFSET CHANGED FROM 2 TO 1
OFFSET CHANGED FROM 1 TO 3
OFFSET CHANGED FROM 3 TO 3
OFFSET CHANGED FROM 3 TO 1
OFFSET CHANGED FROM 1 TO 1
OFFSET CHANGED FROM 1 TO 3
OFFSET CHANGED FROM 3 TO 1
OFFSET CHANGED FROM 1 TO 1
OFFSET CHANGED FROM 1 TO 1
OFFSET CHANGED FROM 1 TO 2
OFFSET CHANGED FROM 2 TO 1
OFFSET CHANGED FROM 1 TO 3
OFFSET CHANGED FROM 3 TO 4
OFFSET CHANGED FROM 4 TO 4
OFFSET CHANGED FROM 4 TO 3
OFFSET CHANGED FROM 3 TO 4
OFFSET CHANGED FROM 4 TO 5
OFFSET CHANGED FROM 5 TO 2
OFFSET CHANGED FROM 2 TO 1
OFFSET CHANGED FROM 1 TO 2
OFFSET CHANGED FROM 2 TO 2
OFFSET CHANGED FROM 2 TO 2
OFFSET CHANGED FROM 2 TO 1
OFFSET CHANGED FROM 1 TO 1
OFFSET CHANGED FROM 1 TO 2
OFFSET CHANGED FROM 2 TO 1
OFFSET CHANGED FROM 1 TO 2
OFFSET CHANGED FROM 2 TO 2
OFFSET CHANGED FROM 2 TO 2
OFFSET CHANGED FROM 2 TO 2
OFFSET CHANGED FROM 2 TO 2
OFFSET CHANGED FROM 2 TO 2
OFFSET CHANGED FROM 2 TO 1
OFFSET CHANGED FROM 1 TO 2
OFFSET CHANGED FROM 2 TO 2
OFFSET CHANGED FROM 2 TO 1
OFFSET CHANGED FROM 1 TO 2
OFFSET CHANGED FROM 2 TO 1
OFFSET CHANGED FROM 1 TO 3
OFFSET CHANGED FROM 3 TO 2
OFFSET CHANGED FROM 2 TO 1
OFFSET CHANGED FROM 1 TO 2
OFFSET CHANGED FROM 2 TO 2
OFFSET CHANGED FROM 2 TO 2
Heartbeat CPU 0 instructions: 20000002 cycles: 6853835 heartbeat IPC: 2.92894 cumulative IPC: 2.91807 (Simulation time: 0 hr 0 min 41 sec) 
OFFSET CHANGED FROM 2 TO 2
OFFSET CHANGED FROM 2 TO 4
OFFSET CHANGED FROM 4 TO 4
OFFSET CHANGED FROM 4 TO 5
OFFSET CHANGED FROM 5 TO 5
OFFSET CHANGED FROM 5 TO 5
OFFSET CHANGED FROM 5 TO 2
OFFSET CHANGED FROM 2 TO 2
OFFSET CHANGED FROM 2 TO 2
OFFSET CHANGED FROM 2 TO 2
OFFSET CHANGED FROM 2 TO 2
OFFSET CHANGED FROM 2 TO 1
OFFSET CHANGED FROM 1 TO 2
OFFSET CHANGED FROM 2 TO 2
OFFSET CHANGED FROM 2 TO 1
OFFSET CHANGED FROM 1 TO 1
OFFSET CHANGED FROM 1 TO 2
OFFSET CHANGED FROM 2 TO 3
OFFSET CHANGED FROM 3 TO 2
OFFSET CHANGED FROM 2 TO 2
OFFSET CHANGED FROM 2 TO 3
OFFSET CHANGED FROM 3 TO 1
OFFSET CHANGED FROM 1 TO 1
OFFSET CHANGED FROM 1 TO 2
OFFSET CHANGED FROM 2 TO 1
OFFSET CHANGED FROM 1 TO 2
OFFSET CHANGED FROM 2 TO 1
OFFSET CHANGED FROM 1 TO 2
OFFSET CHANGED FROM 2 TO 3
OFFSET CHANGED FROM 3 TO 2
OFFSET CHANGED FROM 2 TO 2
OFFSET CHANGED FROM 2 TO 1
OFFSET CHANGED FROM 1 TO 3
OFFSET CHANGED FROM 3 TO 2
OFFSET CHANGED FROM 2 TO 4
OFFSET CHANGED FROM 4 TO 4
OFFSET CHANGED FROM 4 TO 3
OFFSET CHANGED FROM 3 TO 4
OFFSET CHANGED FROM 4 TO 4
OFFSET CHANGED FROM 4 TO 3
OFFSET CHANGED FROM 3 TO 1
OFFSET CHANGED FROM 1 TO 1
OFFSET CHANGED FROM 1 TO 2
OFFSET CHANGED FROM 2 TO 4
OFFSET CHANGED FROM 4 TO 2
OFFSET CHANGED FROM 2 TO 2
OFFSET CHANGED FROM 2 TO 2
OFFSET CHANGED FROM 2 TO 1
OFFSET CHANGED FROM 1 TO 2
OFFSET CHANGED FROM 2 TO 3
OFFSET CHANGED FROM 3 TO 1
OFFSET CHANGED FROM 1 TO 4
OFFSET CHANGED FROM 4 TO 2
OFFSET CHANGED FROM 2 TO 2
OFFSET CHANGED FROM 2 TO 2
OFFSET CHANGED FROM 2 TO 3
OFFSET CHANGED FROM 3 TO 1
OFFSET CHANGED FROM 1 TO 2
OFFSET CHANGED FROM 2 TO 2
OFFSET CHANGED FROM 2 TO 2
OFFSET CHANGED FROM 2 TO 4
OFFSET CHANGED FROM 4 TO 2
OFFSET CHANGED FROM 2 TO 2
Heartbeat CPU 0 instructions: 30000000 cycles: 10279795 heartbeat IPC: 2.91889 cumulative IPC: 2.91835 (Simulation time: 0 hr 1 min 1 sec) 
OFFSET CHANGED FROM 2 TO 2
OFFSET CHANGED FROM 2 TO 1
OFFSET CHANGED FROM 1 TO 4
OFFSET CHANGED FROM 4 TO 2
OFFSET CHANGED FROM 2 TO 3
OFFSET CHANGED FROM 3 TO 4
OFFSET CHANGED FROM 4 TO 2
OFFSET CHANGED FROM 2 TO 2
OFFSET CHANGED FROM 2 TO 1
OFFSET CHANGED FROM 1 TO 4
OFFSET CHANGED FROM 4 TO 4
OFFSET CHANGED FROM 4 TO 3
OFFSET CHANGED FROM 3 TO 4
OFFSET CHANGED FROM 4 TO 3
OFFSET CHANGED FROM 3 TO 3
OFFSET CHANGED FROM 3 TO 2
OFFSET CHANGED FROM 2 TO 2
OFFSET CHANGED FROM 2 TO 3
OFFSET CHANGED FROM 3 TO 2
OFFSET CHANGED FROM 2 TO 1
OFFSET CHANGED FROM 1 TO 2
OFFSET CHANGED FROM 2 TO 3
OFFSET CHANGED FROM 3 TO 2
OFFSET CHANGED FROM 2 TO 2
OFFSET CHANGED FROM 2 TO 2
OFFSET CHANGED FROM 2 TO 3
OFFSET CHANGED FROM 3 TO 3
OFFSET CHANGED FROM 3 TO 2
OFFSET CHANGED FROM 2 TO 2
OFFSET CHANGED FROM 2 TO 2
OFFSET CHANGED FROM 2 TO 1
OFFSET CHANGED FROM 1 TO 1
OFFSET CHANGED FROM 1 TO 1
OFFSET CHANGED FROM 1 TO 1
OFFSET CHANGED FROM 1 TO 3
OFFSET CHANGED FROM 3 TO 3
OFFSET CHANGED FROM 3 TO 3
OFFSET CHANGED FROM 3 TO 2
OFFSET CHANGED FROM 2 TO 2
OFFSET CHANGED FROM 2 TO 1
OFFSET CHANGED FROM 1 TO 1
OFFSET CHANGED FROM 1 TO 1
OFFSET CHANGED FROM 1 TO 2
OFFSET CHANGED FROM 2 TO 1
OFFSET CHANGED FROM 1 TO 3
OFFSET CHANGED FROM 3 TO 1
OFFSET CHANGED FROM 1 TO 1
OFFSET CHANGED FROM 1 TO -1
CHANGING MSHR THRESHOLD FROM 28 TO MIN 2
NO PREFETCH REQUEST BECAUSE PREFETCH SCORE 11 IS NOT GREATER THAN 20 (MSHR OCC = 2)
NO PREFETCH REQUEST BECAUSE PREFETCH SCORE 11 IS NOT GREATER THAN 20 (MSHR OCC = 2)
NO PREFETCH REQUEST BECAUSE PREFETCH SCORE 11 IS NOT GREATER THAN 20 (MSHR OCC = 2)
NO PREFETCH REQUEST BECAUSE PREFETCH SCORE 11 IS NOT GREATER THAN 20 (MSHR OCC = 2)
NO PREFETCH REQUEST BECAUSE PREFETCH SCORE 11 IS NOT GREATER THAN 20 (MSHR OCC = 2)
NO PREFETCH REQUEST BECAUSE PREFETCH SCORE 11 IS NOT GREATER THAN 20 (MSHR OCC = 2)
NO PREFETCH REQUEST BECAUSE PREFETCH SCORE 11 IS NOT GREATER THAN 20 (MSHR OCC = 2)
NO PREFETCH REQUEST BECAUSE PREFETCH SCORE 11 IS NOT GREATER THAN 20 (MSHR OCC = 2)
CHANGING MSHR THRESHOLD FROM 2 TO 3
CHANGING MSHR THRESHOLD FROM 3 TO 5
CHANGING MSHR THRESHOLD FROM 5 TO 6
CHANGING MSHR THRESHOLD FROM 6 TO 8
CHANGING MSHR THRESHOLD FROM 8 TO 10
CHANGING MSHR THRESHOLD FROM 10 TO 11
CHANGING MSHR THRESHOLD FROM 11 TO 13
CHANGING MSHR THRESHOLD FROM 13 TO 15
CHANGING MSHR THRESHOLD FROM 15 TO 16
CHANGING MSHR THRESHOLD FROM 16 TO 18
CHANGING MSHR THRESHOLD FROM 18 TO 19
CHANGING MSHR THRESHOLD FROM 19 TO 21
OFFSET CHANGED FROM -1 TO 4
CHANGING MSHR THRESHOLD FROM 21 TO MAX 28
OFFSET CHANGED FROM 4 TO 3
OFFSET CHANGED FROM 3 TO 4
OFFSET CHANGED FROM 4 TO 4
OFFSET CHANGED FROM 4 TO 5
OFFSET CHANGED FROM 5 TO 2
OFFSET CHANGED FROM 2 TO 3
OFFSET CHANGED FROM 3 TO 2
OFFSET CHANGED FROM 2 TO 2
OFFSET CHANGED FROM 2 TO 2
OFFSET CHANGED FROM 2 TO 4
OFFSET CHANGED FROM 4 TO 1
OFFSET CHANGED FROM 1 TO 2
OFFSET CHANGED FROM 2 TO 1
OFFSET CHANGED FROM 1 TO 2
Heartbeat CPU 0 instructions: 40000000 cycles: 13719427 heartbeat IPC: 2.90729 cumulative IPC: 2.91557 (Simulation time: 0 hr 1 min 22 sec) 
OFFSET CHANGED FROM 2 TO 3
OFFSET CHANGED FROM 3 TO 2
OFFSET CHANGED FROM 2 TO 2
OFFSET CHANGED FROM 2 TO 2
OFFSET CHANGED FROM 2 TO 1
OFFSET CHANGED FROM 1 TO 3
OFFSET CHANGED FROM 3 TO 2
OFFSET CHANGED FROM 2 TO 2
OFFSET CHANGED FROM 2 TO 3
OFFSET CHANGED FROM 3 TO 2
OFFSET CHANGED FROM 2 TO 2
OFFSET CHANGED FROM 2 TO 3
OFFSET CHANGED FROM 3 TO 1
OFFSET CHANGED FROM 1 TO 2
OFFSET CHANGED FROM 2 TO 2
OFFSET CHANGED FROM 2 TO 1
OFFSET CHANGED FROM 1 TO 2
OFFSET CHANGED FROM 2 TO 3
OFFSET CHANGED FROM 3 TO 3
OFFSET CHANGED FROM 3 TO 3
OFFSET CHANGED FROM 3 TO 1
OFFSET CHANGED FROM 1 TO 3
OFFSET CHANGED FROM 3 TO 4
OFFSET CHANGED FROM 4 TO 4
OFFSET CHANGED FROM 4 TO 4
OFFSET CHANGED FROM 4 TO 4
OFFSET CHANGED FROM 4 TO 3
OFFSET CHANGED FROM 3 TO 2
OFFSET CHANGED FROM 2 TO 3
OFFSET CHANGED FROM 3 TO 2
OFFSET CHANGED FROM 2 TO 2
OFFSET CHANGED FROM 2 TO 2
OFFSET CHANGED FROM 2 TO 1
OFFSET CHANGED FROM 1 TO 2
OFFSET CHANGED FROM 2 TO 2
OFFSET CHANGED FROM 2 TO 2
OFFSET CHANGED FROM 2 TO 1
OFFSET CHANGED FROM 1 TO 2
OFFSET CHANGED FROM 2 TO 2
OFFSET CHANGED FROM 2 TO 3
OFFSET CHANGED FROM 3 TO 4
OFFSET CHANGED FROM 4 TO 3
OFFSET CHANGED FROM 3 TO 2
OFFSET CHANGED FROM 2 TO 2
OFFSET CHANGED FROM 2 TO 1
OFFSET CHANGED FROM 1 TO 2
OFFSET CHANGED FROM 2 TO 2
OFFSET CHANGED FROM 2 TO 2
OFFSET CHANGED FROM 2 TO 3
OFFSET CHANGED FROM 3 TO 2
OFFSET CHANGED FROM 2 TO 2
OFFSET CHANGED FROM 2 TO 3
OFFSET CHANGED FROM 3 TO 2
OFFSET CHANGED FROM 2 TO 1
OFFSET CHANGED FROM 1 TO 3
OFFSET CHANGED FROM 3 TO 2
OFFSET CHANGED FROM 2 TO 1
OFFSET CHANGED FROM 1 TO 2
OFFSET CHANGED FROM 2 TO 1
OFFSET CHANGED FROM 1 TO 2
CHANGING MSHR THRESHOLD FROM 28 TO MIN 2
NO PREFETCH REQUEST BECAUSE PREFETCH SCORE 18 IS NOT GREATER THAN 20 (MSHR OCC = 2)
NO PREFETCH REQUEST BECAUSE PREFETCH SCORE 18 IS NOT GREATER THAN 20 (MSHR OCC = 2)
NO PREFETCH REQUEST BECAUSE PREFETCH SCORE 18 IS NOT GREATER THAN 20 (MSHR OCC = 2)
NO PREFETCH REQUEST BECAUSE PREFETCH SCORE 18 IS NOT GREATER THAN 20 (MSHR OCC = 2)
NO PREFETCH REQUEST BECAUSE PREFETCH SCORE 18 IS NOT GREATER THAN 20 (MSHR OCC = 2)
NO PREFETCH REQUEST BECAUSE PREFETCH SCORE 18 IS NOT GREATER THAN 20 (MSHR OCC = 2)
NO PREFETCH REQUEST BECAUSE PREFETCH SCORE 18 IS NOT GREATER THAN 20 (MSHR OCC = 2)
NO PREFETCH REQUEST BECAUSE PREFETCH SCORE 18 IS NOT GREATER THAN 20 (MSHR OCC = 2)
NO PREFETCH REQUEST BECAUSE PREFETCH SCORE 18 IS NOT GREATER THAN 20 (MSHR OCC = 2)
NO PREFETCH REQUEST BECAUSE PREFETCH SCORE 18 IS NOT GREATER THAN 20 (MSHR OCC = 2)
NO PREFETCH REQUEST BECAUSE PREFETCH SCORE 18 IS NOT GREATER THAN 20 (MSHR OCC = 2)
NO PREFETCH REQUEST BECAUSE PREFETCH SCORE 18 IS NOT GREATER THAN 20 (MSHR OCC = 2)
NO PREFETCH REQUEST BECAUSE PREFETCH SCORE 18 IS NOT GREATER THAN 20 (MSHR OCC = 2)
NO PREFETCH REQUEST BECAUSE PREFETCH SCORE 18 IS NOT GREATER THAN 20 (MSHR OCC = 2)
NO PREFETCH REQUEST BECAUSE PREFETCH SCORE 18 IS NOT GREATER THAN 20 (MSHR OCC = 2)
NO PREFETCH REQUEST BECAUSE PREFETCH SCORE 18 IS NOT GREATER THAN 20 (MSHR OCC = 2)
NO PREFETCH REQUEST BECAUSE PREFETCH SCORE 18 IS NOT GREATER THAN 20 (MSHR OCC = 2)
NO PREFETCH REQUEST BECAUSE PREFETCH SCORE 18 IS NOT GREATER THAN 20 (MSHR OCC = 2)
NO PREFETCH REQUEST BECAUSE PREFETCH SCORE 18 IS NOT GREATER THAN 20 (MSHR OCC = 2)
NO PREFETCH REQUEST BECAUSE PREFETCH SCORE 18 IS NOT GREATER THAN 20 (MSHR OCC = 2)
NO PREFETCH REQUEST BECAUSE PREFETCH SCORE 18 IS NOT GREATER THAN 20 (MSHR OCC = 2)
NO PREFETCH REQUEST BECAUSE PREFETCH SCORE 18 IS NOT GREATER THAN 20 (MSHR OCC = 2)
NO PREFETCH REQUEST BECAUSE PREFETCH SCORE 18 IS NOT GREATER THAN 20 (MSHR OCC = 2)
NO PREFETCH REQUEST BECAUSE PREFETCH SCORE 18 IS NOT GREATER THAN 20 (MSHR OCC = 2)
NO PREFETCH REQUEST BECAUSE PREFETCH SCORE 18 IS NOT GREATER THAN 20 (MSHR OCC = 2)
NO PREFETCH REQUEST BECAUSE PREFETCH SCORE 18 IS NOT GREATER THAN 20 (MSHR OCC = 2)
NO PREFETCH REQUEST BECAUSE PREFETCH SCORE 18 IS NOT GREATER THAN 20 (MSHR OCC = 2)
NO PREFETCH REQUEST BECAUSE PREFETCH SCORE 18 IS NOT GREATER THAN 20 (MSHR OCC = 2)
NO PREFETCH REQUEST BECAUSE PREFETCH SCORE 18 IS NOT GREATER THAN 20 (MSHR OCC = 2)
NO PREFETCH REQUEST BECAUSE PREFETCH SCORE 18 IS NOT GREATER THAN 20 (MSHR OCC = 2)
NO PREFETCH REQUEST BECAUSE PREFETCH SCORE 18 IS NOT GREATER THAN 20 (MSHR OCC = 2)
NO PREFETCH REQUEST BECAUSE PREFETCH SCORE 18 IS NOT GREATER THAN 20 (MSHR OCC = 2)
NO PREFETCH REQUEST BECAUSE PREFETCH SCORE 18 IS NOT GREATER THAN 20 (MSHR OCC = 2)
CHANGING MSHR THRESHOLD FROM 2 TO 3
CHANGING MSHR THRESHOLD FROM 3 TO 5
CHANGING MSHR THRESHOLD FROM 5 TO 6
CHANGING MSHR THRESHOLD FROM 6 TO 8
CHANGING MSHR THRESHOLD FROM 8 TO 10
CHANGING MSHR THRESHOLD FROM 10 TO 11
CHANGING MSHR THRESHOLD FROM 11 TO 13
CHANGING MSHR THRESHOLD FROM 13 TO 15
CHANGING MSHR THRESHOLD FROM 15 TO 16
CHANGING MSHR THRESHOLD FROM 16 TO 18
CHANGING MSHR THRESHOLD FROM 18 TO 19
CHANGING MSHR THRESHOLD FROM 19 TO 21
CHANGING MSHR THRESHOLD FROM 21 TO 23
CHANGING MSHR THRESHOLD FROM 23 TO 24
CHANGING MSHR THRESHOLD FROM 24 TO 26
CHANGING MSHR THRESHOLD FROM 26 TO 28
Heartbeat CPU 0 instructions: 50000000 cycles: 17185275 heartbeat IPC: 2.8853 cumulative IPC: 2.90947 (Simulation time: 0 hr 1 min 43 sec) 

Warmup complete CPU 0 instructions: 50000004 cycles: 17185276 (Simulation time: 0 hr 1 min 43 sec) 

OFFSET CHANGED FROM 2 TO 1
OFFSET CHANGED FROM 1 TO 3
OFFSET CHANGED FROM 3 TO 4
PREFETCHING INTO L2 w/ PREFETCH SCORE 31 (MSHR OCC = 30)
PREFETCHING INTO L2 w/ PREFETCH SCORE 31 (MSHR OCC = 30)
PREFETCHING INTO L2 w/ PREFETCH SCORE 31 (MSHR OCC = 30)
PREFETCHING INTO L2 w/ PREFETCH SCORE 31 (MSHR OCC = 28)
PREFETCHING INTO L2 w/ PREFETCH SCORE 31 (MSHR OCC = 28)
PREFETCHING INTO L2 w/ PREFETCH SCORE 31 (MSHR OCC = 30)
PREFETCHING INTO L2 w/ PREFETCH SCORE 31 (MSHR OCC = 31)
PREFETCHING INTO L2 w/ PREFETCH SCORE 31 (MSHR OCC = 32)
PREFETCHING INTO L2 w/ PREFETCH SCORE 31 (MSHR OCC = 32)
PREFETCHING INTO L2 w/ PREFETCH SCORE 31 (MSHR OCC = 32)
PREFETCHING INTO L2 w/ PREFETCH SCORE 31 (MSHR OCC = 32)
PREFETCHING INTO L2 w/ PREFETCH SCORE 31 (MSHR OCC = 28)
PREFETCHING INTO L2 w/ PREFETCH SCORE 31 (MSHR OCC = 29)
PREFETCHING INTO L2 w/ PREFETCH SCORE 31 (MSHR OCC = 32)
PREFETCHING INTO L2 w/ PREFETCH SCORE 31 (MSHR OCC = 32)
PREFETCHING INTO L2 w/ PREFETCH SCORE 31 (MSHR OCC = 32)
PREFETCHING INTO L2 w/ PREFETCH SCORE 31 (MSHR OCC = 29)
PREFETCHING INTO L2 w/ PREFETCH SCORE 31 (MSHR OCC = 28)
PREFETCHING INTO L2 w/ PREFETCH SCORE 31 (MSHR OCC = 28)
PREFETCHING INTO L2 w/ PREFETCH SCORE 31 (MSHR OCC = 30)
PREFETCHING INTO L2 w/ PREFETCH SCORE 31 (MSHR OCC = 31)
PREFETCHING INTO L2 w/ PREFETCH SCORE 31 (MSHR OCC = 32)
PREFETCHING INTO L2 w/ PREFETCH SCORE 31 (MSHR OCC = 32)
PREFETCHING INTO L2 w/ PREFETCH SCORE 31 (MSHR OCC = 28)
PREFETCHING INTO L2 w/ PREFETCH SCORE 31 (MSHR OCC = 28)
PREFETCHING INTO L2 w/ PREFETCH SCORE 31 (MSHR OCC = 29)
PREFETCHING INTO L2 w/ PREFETCH SCORE 31 (MSHR OCC = 28)
PREFETCHING INTO L2 w/ PREFETCH SCORE 31 (MSHR OCC = 28)
OFFSET CHANGED FROM 4 TO 4
OFFSET CHANGED FROM 4 TO 5
OFFSET CHANGED FROM 5 TO 2
OFFSET CHANGED FROM 2 TO 3
OFFSET CHANGED FROM 3 TO 2
OFFSET CHANGED FROM 2 TO 2
OFFSET CHANGED FROM 2 TO 2
OFFSET CHANGED FROM 2 TO 2
OFFSET CHANGED FROM 2 TO 2
OFFSET CHANGED FROM 2 TO 2
OFFSET CHANGED FROM 2 TO 2
OFFSET CHANGED FROM 2 TO 2
OFFSET CHANGED FROM 2 TO 2
OFFSET CHANGED FROM 2 TO 2
OFFSET CHANGED FROM 2 TO 3
OFFSET CHANGED FROM 3 TO 4
OFFSET CHANGED FROM 4 TO 2
OFFSET CHANGED FROM 2 TO 2
OFFSET CHANGED FROM 2 TO 1
OFFSET CHANGED FROM 1 TO 2
OFFSET CHANGED FROM 2 TO 1
OFFSET CHANGED FROM 1 TO 1
OFFSET CHANGED FROM 1 TO 1
OFFSET CHANGED FROM 1 TO 1
OFFSET CHANGED FROM 1 TO 2
OFFSET CHANGED FROM 2 TO 2
OFFSET CHANGED FROM 2 TO 2
OFFSET CHANGED FROM 2 TO 2
OFFSET CHANGED FROM 2 TO 1
OFFSET CHANGED FROM 1 TO 1
OFFSET CHANGED FROM 1 TO 1
OFFSET CHANGED FROM 1 TO 1
OFFSET CHANGED FROM 1 TO 1
OFFSET CHANGED FROM 1 TO 1
OFFSET CHANGED FROM 1 TO 1
OFFSET CHANGED FROM 1 TO 1
OFFSET CHANGED FROM 1 TO 4
OFFSET CHANGED FROM 4 TO 4
OFFSET CHANGED FROM 4 TO 3
PREFETCHING INTO L2 w/ PREFETCH SCORE 31 (MSHR OCC = 30)
PREFETCHING INTO L2 w/ PREFETCH SCORE 31 (MSHR OCC = 30)
PREFETCHING INTO L2 w/ PREFETCH SCORE 31 (MSHR OCC = 29)
PREFETCHING INTO L2 w/ PREFETCH SCORE 31 (MSHR OCC = 28)
PREFETCHING INTO L2 w/ PREFETCH SCORE 31 (MSHR OCC = 28)
PREFETCHING INTO L2 w/ PREFETCH SCORE 31 (MSHR OCC = 29)
PREFETCHING INTO L2 w/ PREFETCH SCORE 31 (MSHR OCC = 28)
PREFETCHING INTO L2 w/ PREFETCH SCORE 31 (MSHR OCC = 31)
PREFETCHING INTO L2 w/ PREFETCH SCORE 31 (MSHR OCC = 30)
PREFETCHING INTO L2 w/ PREFETCH SCORE 31 (MSHR OCC = 31)
PREFETCHING INTO L2 w/ PREFETCH SCORE 31 (MSHR OCC = 32)
PREFETCHING INTO L2 w/ PREFETCH SCORE 31 (MSHR OCC = 32)
PREFETCHING INTO L2 w/ PREFETCH SCORE 31 (MSHR OCC = 28)
PREFETCHING INTO L2 w/ PREFETCH SCORE 31 (MSHR OCC = 29)
OFFSET CHANGED FROM 3 TO 3
OFFSET CHANGED FROM 3 TO 1
OFFSET CHANGED FROM 1 TO 2
OFFSET CHANGED FROM 2 TO 2
OFFSET CHANGED FROM 2 TO 2
OFFSET CHANGED FROM 2 TO 2
OFFSET CHANGED FROM 2 TO 2
OFFSET CHANGED FROM 2 TO 3
OFFSET CHANGED FROM 3 TO 3
OFFSET CHANGED FROM 3 TO 2
OFFSET CHANGED FROM 2 TO 2
OFFSET CHANGED FROM 2 TO 1
OFFSET CHANGED FROM 1 TO 2
OFFSET CHANGED FROM 2 TO 2
OFFSET CHANGED FROM 2 TO 4
OFFSET CHANGED FROM 4 TO 3
OFFSET CHANGED FROM 3 TO 1
OFFSET CHANGED FROM 1 TO 1
OFFSET CHANGED FROM 1 TO 1
OFFSET CHANGED FROM 1 TO 3
Heartbeat CPU 0 instructions: 60000001 cycles: 26316567 heartbeat IPC: 1.09514 cumulative IPC: 1.09514 (Simulation time: 0 hr 2 min 1 sec) 
OFFSET CHANGED FROM 3 TO 2
OFFSET CHANGED FROM 2 TO 1
OFFSET CHANGED FROM 1 TO 2
OFFSET CHANGED FROM 2 TO 1
OFFSET CHANGED FROM 1 TO 3
OFFSET CHANGED FROM 3 TO 1
OFFSET CHANGED FROM 1 TO 1
OFFSET CHANGED FROM 1 TO 1
OFFSET CHANGED FROM 1 TO 1
OFFSET CHANGED FROM 1 TO 1
OFFSET CHANGED FROM 1 TO 3
OFFSET CHANGED FROM 3 TO 3
OFFSET CHANGED FROM 3 TO 3
OFFSET CHANGED FROM 3 TO 1
OFFSET CHANGED FROM 1 TO 1
OFFSET CHANGED FROM 1 TO 1
OFFSET CHANGED FROM 1 TO 4
OFFSET CHANGED FROM 4 TO 3
OFFSET CHANGED FROM 3 TO 4
PREFETCHING INTO L2 w/ PREFETCH SCORE 31 (MSHR OCC = 28)
PREFETCHING INTO L2 w/ PREFETCH SCORE 31 (MSHR OCC = 29)
PREFETCHING INTO L2 w/ PREFETCH SCORE 31 (MSHR OCC = 30)
PREFETCHING INTO L2 w/ PREFETCH SCORE 31 (MSHR OCC = 28)
PREFETCHING INTO L2 w/ PREFETCH SCORE 31 (MSHR OCC = 31)
PREFETCHING INTO L2 w/ PREFETCH SCORE 31 (MSHR OCC = 31)
PREFETCHING INTO L2 w/ PREFETCH SCORE 31 (MSHR OCC = 30)
PREFETCHING INTO L2 w/ PREFETCH SCORE 31 (MSHR OCC = 28)
OFFSET CHANGED FROM 4 TO 1
OFFSET CHANGED FROM 1 TO 1
OFFSET CHANGED FROM 1 TO 2
OFFSET CHANGED FROM 2 TO 2
OFFSET CHANGED FROM 2 TO 2
OFFSET CHANGED FROM 2 TO 2
OFFSET CHANGED FROM 2 TO 2
OFFSET CHANGED FROM 2 TO 3
OFFSET CHANGED FROM 3 TO 3
OFFSET CHANGED FROM 3 TO 4
OFFSET CHANGED FROM 4 TO 2
OFFSET CHANGED FROM 2 TO 2
OFFSET CHANGED FROM 2 TO 2
OFFSET CHANGED FROM 2 TO 2
OFFSET CHANGED FROM 2 TO 2
OFFSET CHANGED FROM 2 TO 3
OFFSET CHANGED FROM 3 TO 1
OFFSET CHANGED FROM 1 TO 3
OFFSET CHANGED FROM 3 TO 3
OFFSET CHANGED FROM 3 TO 2
OFFSET CHANGED FROM 2 TO 2
OFFSET CHANGED FROM 2 TO 2
OFFSET CHANGED FROM 2 TO 3
OFFSET CHANGED FROM 3 TO 2
OFFSET CHANGED FROM 2 TO 1
OFFSET CHANGED FROM 1 TO 4
OFFSET CHANGED FROM 4 TO 3
OFFSET CHANGED FROM 3 TO 1
OFFSET CHANGED FROM 1 TO 1
OFFSET CHANGED FROM 1 TO 1
OFFSET CHANGED FROM 1 TO 3
OFFSET CHANGED FROM 3 TO 4
OFFSET CHANGED FROM 4 TO 1
OFFSET CHANGED FROM 1 TO 1
OFFSET CHANGED FROM 1 TO 1
OFFSET CHANGED FROM 1 TO 1
OFFSET CHANGED FROM 1 TO 4
OFFSET CHANGED FROM 4 TO 4
PREFETCHING INTO L2 w/ PREFETCH SCORE 31 (MSHR OCC = 30)
PREFETCHING INTO L2 w/ PREFETCH SCORE 31 (MSHR OCC = 31)
PREFETCHING INTO L2 w/ PREFETCH SCORE 31 (MSHR OCC = 32)
PREFETCHING INTO L2 w/ PREFETCH SCORE 31 (MSHR OCC = 31)
PREFETCHING INTO L2 w/ PREFETCH SCORE 31 (MSHR OCC = 29)
PREFETCHING INTO L2 w/ PREFETCH SCORE 31 (MSHR OCC = 28)
PREFETCHING INTO L2 w/ PREFETCH SCORE 31 (MSHR OCC = 29)
PREFETCHING INTO L2 w/ PREFETCH SCORE 31 (MSHR OCC = 29)
PREFETCHING INTO L2 w/ PREFETCH SCORE 31 (MSHR OCC = 28)
PREFETCHING INTO L2 w/ PREFETCH SCORE 31 (MSHR OCC = 28)
PREFETCHING INTO L2 w/ PREFETCH SCORE 31 (MSHR OCC = 28)
PREFETCHING INTO L2 w/ PREFETCH SCORE 31 (MSHR OCC = 28)
PREFETCHING INTO L2 w/ PREFETCH SCORE 31 (MSHR OCC = 30)
PREFETCHING INTO L2 w/ PREFETCH SCORE 31 (MSHR OCC = 28)
PREFETCHING INTO L2 w/ PREFETCH SCORE 31 (MSHR OCC = 29)
PREFETCHING INTO L2 w/ PREFETCH SCORE 31 (MSHR OCC = 28)
PREFETCHING INTO L2 w/ PREFETCH SCORE 31 (MSHR OCC = 28)
PREFETCHING INTO L2 w/ PREFETCH SCORE 31 (MSHR OCC = 28)
PREFETCHING INTO L2 w/ PREFETCH SCORE 31 (MSHR OCC = 28)
PREFETCHING INTO L2 w/ PREFETCH SCORE 31 (MSHR OCC = 28)
PREFETCHING INTO L2 w/ PREFETCH SCORE 31 (MSHR OCC = 28)
PREFETCHING INTO L2 w/ PREFETCH SCORE 31 (MSHR OCC = 31)
PREFETCHING INTO L2 w/ PREFETCH SCORE 31 (MSHR OCC = 31)
PREFETCHING INTO L2 w/ PREFETCH SCORE 31 (MSHR OCC = 32)
PREFETCHING INTO L2 w/ PREFETCH SCORE 31 (MSHR OCC = 29)
PREFETCHING INTO L2 w/ PREFETCH SCORE 31 (MSHR OCC = 29)
PREFETCHING INTO L2 w/ PREFETCH SCORE 31 (MSHR OCC = 29)
PREFETCHING INTO L2 w/ PREFETCH SCORE 31 (MSHR OCC = 28)
PREFETCHING INTO L2 w/ PREFETCH SCORE 31 (MSHR OCC = 32)
OFFSET CHANGED FROM 4 TO 3
OFFSET CHANGED FROM 3 TO 2
OFFSET CHANGED FROM 2 TO 2
OFFSET CHANGED FROM 2 TO 2
OFFSET CHANGED FROM 2 TO 2
Heartbeat CPU 0 instructions: 70000003 cycles: 36322793 heartbeat IPC: 0.999378 cumulative IPC: 1.04507 (Simulation time: 0 hr 2 min 19 sec) 
OFFSET CHANGED FROM 2 TO 2
OFFSET CHANGED FROM 2 TO 2
OFFSET CHANGED FROM 2 TO 2
OFFSET CHANGED FROM 2 TO 2
OFFSET CHANGED FROM 2 TO 2
OFFSET CHANGED FROM 2 TO 3
OFFSET CHANGED FROM 3 TO 2
OFFSET CHANGED FROM 2 TO 3
OFFSET CHANGED FROM 3 TO 2
OFFSET CHANGED FROM 2 TO 2
OFFSET CHANGED FROM 2 TO 3
OFFSET CHANGED FROM 3 TO 1
OFFSET CHANGED FROM 1 TO 2
OFFSET CHANGED FROM 2 TO 1
OFFSET CHANGED FROM 1 TO 1
OFFSET CHANGED FROM 1 TO 1
OFFSET CHANGED FROM 1 TO 1
OFFSET CHANGED FROM 1 TO 1
OFFSET CHANGED FROM 1 TO 3
OFFSET CHANGED FROM 3 TO 2
OFFSET CHANGED FROM 2 TO 1
OFFSET CHANGED FROM 1 TO 2
OFFSET CHANGED FROM 2 TO 3
OFFSET CHANGED FROM 3 TO 3
OFFSET CHANGED FROM 3 TO 3
OFFSET CHANGED FROM 3 TO 2
OFFSET CHANGED FROM 2 TO 3
OFFSET CHANGED FROM 3 TO 3
OFFSET CHANGED FROM 3 TO 2
OFFSET CHANGED FROM 2 TO 4
OFFSET CHANGED FROM 4 TO 4
OFFSET CHANGED FROM 4 TO 3
OFFSET CHANGED FROM 3 TO 4
PREFETCHING INTO L2 w/ PREFETCH SCORE 31 (MSHR OCC = 32)
PREFETCHING INTO L2 w/ PREFETCH SCORE 31 (MSHR OCC = 32)
PREFETCHING INTO L2 w/ PREFETCH SCORE 31 (MSHR OCC = 32)
PREFETCHING INTO L2 w/ PREFETCH SCORE 31 (MSHR OCC = 32)
PREFETCHING INTO L2 w/ PREFETCH SCORE 31 (MSHR OCC = 32)
PREFETCHING INTO L2 w/ PREFETCH SCORE 31 (MSHR OCC = 31)
PREFETCHING INTO L2 w/ PREFETCH SCORE 31 (MSHR OCC = 31)
PREFETCHING INTO L2 w/ PREFETCH SCORE 31 (MSHR OCC = 32)
PREFETCHING INTO L2 w/ PREFETCH SCORE 31 (MSHR OCC = 32)
PREFETCHING INTO L2 w/ PREFETCH SCORE 31 (MSHR OCC = 32)
PREFETCHING INTO L2 w/ PREFETCH SCORE 31 (MSHR OCC = 32)
PREFETCHING INTO L2 w/ PREFETCH SCORE 31 (MSHR OCC = 31)
PREFETCHING INTO L2 w/ PREFETCH SCORE 31 (MSHR OCC = 28)
OFFSET CHANGED FROM 4 TO 4
OFFSET CHANGED FROM 4 TO 4
OFFSET CHANGED FROM 4 TO 2
OFFSET CHANGED FROM 2 TO 3
OFFSET CHANGED FROM 3 TO 2
OFFSET CHANGED FROM 2 TO 3
OFFSET CHANGED FROM 3 TO 2
OFFSET CHANGED FROM 2 TO 1
OFFSET CHANGED FROM 1 TO 2
OFFSET CHANGED FROM 2 TO 2
OFFSET CHANGED FROM 2 TO 2
OFFSET CHANGED FROM 2 TO 2
OFFSET CHANGED FROM 2 TO 3
OFFSET CHANGED FROM 3 TO 2
OFFSET CHANGED FROM 2 TO 2
OFFSET CHANGED FROM 2 TO 2
OFFSET CHANGED FROM 2 TO 3
OFFSET CHANGED FROM 3 TO 2
OFFSET CHANGED FROM 2 TO 1
OFFSET CHANGED FROM 1 TO 1
OFFSET CHANGED FROM 1 TO 1
OFFSET CHANGED FROM 1 TO 1
OFFSET CHANGED FROM 1 TO 1
OFFSET CHANGED FROM 1 TO 1
OFFSET CHANGED FROM 1 TO 2
OFFSET CHANGED FROM 2 TO 1
OFFSET CHANGED FROM 1 TO 1
OFFSET CHANGED FROM 1 TO 1
OFFSET CHANGED FROM 1 TO 1
OFFSET CHANGED FROM 1 TO 1
Heartbeat CPU 0 instructions: 80000001 cycles: 45976093 heartbeat IPC: 1.03592 cumulative IPC: 1.042 (Simulation time: 0 hr 2 min 37 sec) 
OFFSET CHANGED FROM 1 TO 1
OFFSET CHANGED FROM 1 TO 1
OFFSET CHANGED FROM 1 TO 2
OFFSET CHANGED FROM 2 TO 2
OFFSET CHANGED FROM 2 TO 1
OFFSET CHANGED FROM 1 TO 3
OFFSET CHANGED FROM 3 TO 1
OFFSET CHANGED FROM 1 TO 1
OFFSET CHANGED FROM 1 TO 4
OFFSET CHANGED FROM 4 TO 4
OFFSET CHANGED FROM 4 TO 3
PREFETCHING INTO L2 w/ PREFETCH SCORE 31 (MSHR OCC = 29)
PREFETCHING INTO L2 w/ PREFETCH SCORE 31 (MSHR OCC = 30)
PREFETCHING INTO L2 w/ PREFETCH SCORE 31 (MSHR OCC = 32)
PREFETCHING INTO L2 w/ PREFETCH SCORE 31 (MSHR OCC = 32)
PREFETCHING INTO L2 w/ PREFETCH SCORE 31 (MSHR OCC = 32)
PREFETCHING INTO L2 w/ PREFETCH SCORE 31 (MSHR OCC = 28)
PREFETCHING INTO L2 w/ PREFETCH SCORE 31 (MSHR OCC = 29)
PREFETCHING INTO L2 w/ PREFETCH SCORE 31 (MSHR OCC = 30)
PREFETCHING INTO L2 w/ PREFETCH SCORE 31 (MSHR OCC = 31)
PREFETCHING INTO L2 w/ PREFETCH SCORE 31 (MSHR OCC = 32)
PREFETCHING INTO L2 w/ PREFETCH SCORE 31 (MSHR OCC = 32)
PREFETCHING INTO L2 w/ PREFETCH SCORE 31 (MSHR OCC = 32)
PREFETCHING INTO L2 w/ PREFETCH SCORE 31 (MSHR OCC = 32)
PREFETCHING INTO L2 w/ PREFETCH SCORE 31 (MSHR OCC = 28)
PREFETCHING INTO L2 w/ PREFETCH SCORE 31 (MSHR OCC = 29)
PREFETCHING INTO L2 w/ PREFETCH SCORE 31 (MSHR OCC = 28)
PREFETCHING INTO L2 w/ PREFETCH SCORE 31 (MSHR OCC = 29)
PREFETCHING INTO L2 w/ PREFETCH SCORE 31 (MSHR OCC = 28)
PREFETCHING INTO L2 w/ PREFETCH SCORE 31 (MSHR OCC = 28)
PREFETCHING INTO L2 w/ PREFETCH SCORE 31 (MSHR OCC = 28)
PREFETCHING INTO L2 w/ PREFETCH SCORE 31 (MSHR OCC = 28)
PREFETCHING INTO L2 w/ PREFETCH SCORE 31 (MSHR OCC = 29)
PREFETCHING INTO L2 w/ PREFETCH SCORE 31 (MSHR OCC = 29)
PREFETCHING INTO L2 w/ PREFETCH SCORE 31 (MSHR OCC = 31)
PREFETCHING INTO L2 w/ PREFETCH SCORE 31 (MSHR OCC = 28)
PREFETCHING INTO L2 w/ PREFETCH SCORE 31 (MSHR OCC = 29)
PREFETCHING INTO L2 w/ PREFETCH SCORE 31 (MSHR OCC = 30)
PREFETCHING INTO L2 w/ PREFETCH SCORE 31 (MSHR OCC = 31)
OFFSET CHANGED FROM 3 TO 6
OFFSET CHANGED FROM 6 TO 4
OFFSET CHANGED FROM 4 TO 3
OFFSET CHANGED FROM 3 TO 4
OFFSET CHANGED FROM 4 TO 2
OFFSET CHANGED FROM 2 TO 2
OFFSET CHANGED FROM 2 TO 3
OFFSET CHANGED FROM 3 TO 2
OFFSET CHANGED FROM 2 TO 2
OFFSET CHANGED FROM 2 TO 3
OFFSET CHANGED FROM 3 TO 2
OFFSET CHANGED FROM 2 TO 2
OFFSET CHANGED FROM 2 TO 1
OFFSET CHANGED FROM 1 TO 2
OFFSET CHANGED FROM 2 TO 2
OFFSET CHANGED FROM 2 TO 3
OFFSET CHANGED FROM 3 TO 1
OFFSET CHANGED FROM 1 TO 3
OFFSET CHANGED FROM 3 TO 3
OFFSET CHANGED FROM 3 TO 1
OFFSET CHANGED FROM 1 TO 1
OFFSET CHANGED FROM 1 TO 1
OFFSET CHANGED FROM 1 TO 2
OFFSET CHANGED FROM 2 TO 1
OFFSET CHANGED FROM 1 TO 3
OFFSET CHANGED FROM 3 TO 1
OFFSET CHANGED FROM 1 TO 1
OFFSET CHANGED FROM 1 TO 3
OFFSET CHANGED FROM 3 TO 2
OFFSET CHANGED FROM 2 TO 2
OFFSET CHANGED FROM 2 TO 1
OFFSET CHANGED FROM 1 TO 2
OFFSET CHANGED FROM 2 TO 1
OFFSET CHANGED FROM 1 TO 1
OFFSET CHANGED FROM 1 TO 2
OFFSET CHANGED FROM 2 TO 2
OFFSET CHANGED FROM 2 TO 2
OFFSET CHANGED FROM 2 TO 4
OFFSET CHANGED FROM 4 TO 3
OFFSET CHANGED FROM 3 TO 4
PREFETCHING INTO L2 w/ PREFETCH SCORE 31 (MSHR OCC = 28)
PREFETCHING INTO L2 w/ PREFETCH SCORE 31 (MSHR OCC = 32)
PREFETCHING INTO L2 w/ PREFETCH SCORE 31 (MSHR OCC = 32)
PREFETCHING INTO L2 w/ PREFETCH SCORE 31 (MSHR OCC = 32)
PREFETCHING INTO L2 w/ PREFETCH SCORE 31 (MSHR OCC = 32)
PREFETCHING INTO L2 w/ PREFETCH SCORE 31 (MSHR OCC = 32)
PREFETCHING INTO L2 w/ PREFETCH SCORE 31 (MSHR OCC = 28)
PREFETCHING INTO L2 w/ PREFETCH SCORE 31 (MSHR OCC = 29)
PREFETCHING INTO L2 w/ PREFETCH SCORE 31 (MSHR OCC = 28)
PREFETCHING INTO L2 w/ PREFETCH SCORE 31 (MSHR OCC = 30)
PREFETCHING INTO L2 w/ PREFETCH SCORE 31 (MSHR OCC = 31)
PREFETCHING INTO L2 w/ PREFETCH SCORE 31 (MSHR OCC = 31)
PREFETCHING INTO L2 w/ PREFETCH SCORE 31 (MSHR OCC = 31)
PREFETCHING INTO L2 w/ PREFETCH SCORE 31 (MSHR OCC = 28)
OFFSET CHANGED FROM 4 TO 4
OFFSET CHANGED FROM 4 TO 9
OFFSET CHANGED FROM 9 TO 2
OFFSET CHANGED FROM 2 TO 1
OFFSET CHANGED FROM 1 TO 3
OFFSET CHANGED FROM 3 TO 2
OFFSET CHANGED FROM 2 TO 1
OFFSET CHANGED FROM 1 TO 2
OFFSET CHANGED FROM 2 TO 2
OFFSET CHANGED FROM 2 TO 4
OFFSET CHANGED FROM 4 TO 3
OFFSET CHANGED FROM 3 TO 3
Heartbeat CPU 0 instructions: 90000000 cycles: 55467218 heartbeat IPC: 1.05362 cumulative IPC: 1.04488 (Simulation time: 0 hr 2 min 55 sec) 
OFFSET CHANGED FROM 3 TO 2
OFFSET CHANGED FROM 2 TO 3
OFFSET CHANGED FROM 3 TO 2
OFFSET CHANGED FROM 2 TO 1
OFFSET CHANGED FROM 1 TO 1
OFFSET CHANGED FROM 1 TO 1
OFFSET CHANGED FROM 1 TO 1
OFFSET CHANGED FROM 1 TO 1
OFFSET CHANGED FROM 1 TO 1
OFFSET CHANGED FROM 1 TO 1
OFFSET CHANGED FROM 1 TO 1
OFFSET CHANGED FROM 1 TO 4
OFFSET CHANGED FROM 4 TO 1
OFFSET CHANGED FROM 1 TO 1
OFFSET CHANGED FROM 1 TO 2
OFFSET CHANGED FROM 2 TO 2
OFFSET CHANGED FROM 2 TO 1
OFFSET CHANGED FROM 1 TO 1
OFFSET CHANGED FROM 1 TO 1
OFFSET CHANGED FROM 1 TO 1
OFFSET CHANGED FROM 1 TO 1
OFFSET CHANGED FROM 1 TO 4
OFFSET CHANGED FROM 4 TO 5
OFFSET CHANGED FROM 5 TO 4
PREFETCHING INTO L2 w/ PREFETCH SCORE 31 (MSHR OCC = 28)
PREFETCHING INTO L2 w/ PREFETCH SCORE 31 (MSHR OCC = 29)
PREFETCHING INTO L2 w/ PREFETCH SCORE 31 (MSHR OCC = 31)
PREFETCHING INTO L2 w/ PREFETCH SCORE 31 (MSHR OCC = 28)
PREFETCHING INTO L2 w/ PREFETCH SCORE 31 (MSHR OCC = 30)
PREFETCHING INTO L2 w/ PREFETCH SCORE 31 (MSHR OCC = 31)
PREFETCHING INTO L2 w/ PREFETCH SCORE 31 (MSHR OCC = 32)
PREFETCHING INTO L2 w/ PREFETCH SCORE 31 (MSHR OCC = 30)
PREFETCHING INTO L2 w/ PREFETCH SCORE 31 (MSHR OCC = 30)
PREFETCHING INTO L2 w/ PREFETCH SCORE 31 (MSHR OCC = 28)
PREFETCHING INTO L2 w/ PREFETCH SCORE 31 (MSHR OCC = 28)
PREFETCHING INTO L2 w/ PREFETCH SCORE 31 (MSHR OCC = 28)
PREFETCHING INTO L2 w/ PREFETCH SCORE 31 (MSHR OCC = 32)
PREFETCHING INTO L2 w/ PREFETCH SCORE 31 (MSHR OCC = 32)
PREFETCHING INTO L2 w/ PREFETCH SCORE 31 (MSHR OCC = 28)
OFFSET CHANGED FROM 4 TO 4
OFFSET CHANGED FROM 4 TO 5
OFFSET CHANGED FROM 5 TO 2
OFFSET CHANGED FROM 2 TO 3
OFFSET CHANGED FROM 3 TO 2
OFFSET CHANGED FROM 2 TO 2
OFFSET CHANGED FROM 2 TO 2
OFFSET CHANGED FROM 2 TO 1
OFFSET CHANGED FROM 1 TO 2
OFFSET CHANGED FROM 2 TO 2
OFFSET CHANGED FROM 2 TO 2
OFFSET CHANGED FROM 2 TO 3
OFFSET CHANGED FROM 3 TO 3
OFFSET CHANGED FROM 3 TO 2
OFFSET CHANGED FROM 2 TO 2
OFFSET CHANGED FROM 2 TO 2
OFFSET CHANGED FROM 2 TO 2
OFFSET CHANGED FROM 2 TO 2
OFFSET CHANGED FROM 2 TO 1
OFFSET CHANGED FROM 1 TO 2
OFFSET CHANGED FROM 2 TO 2
OFFSET CHANGED FROM 2 TO 2
OFFSET CHANGED FROM 2 TO 2
OFFSET CHANGED FROM 2 TO 1
OFFSET CHANGED FROM 1 TO 2
OFFSET CHANGED FROM 2 TO 1
OFFSET CHANGED FROM 1 TO 1
OFFSET CHANGED FROM 1 TO 3
OFFSET CHANGED FROM 3 TO 2
OFFSET CHANGED FROM 2 TO 1
OFFSET CHANGED FROM 1 TO 1
OFFSET CHANGED FROM 1 TO 2
OFFSET CHANGED FROM 2 TO 1
CHANGING MSHR THRESHOLD FROM 28 TO 26
CHANGING MSHR THRESHOLD FROM 26 TO 24
CHANGING MSHR THRESHOLD FROM 24 TO 23
CHANGING MSHR THRESHOLD FROM 23 TO 21
CHANGING MSHR THRESHOLD FROM 21 TO 19
CHANGING MSHR THRESHOLD FROM 19 TO 18
CHANGING MSHR THRESHOLD FROM 18 TO 16
CHANGING MSHR THRESHOLD FROM 16 TO 15
CHANGING MSHR THRESHOLD FROM 15 TO 13
CHANGING MSHR THRESHOLD FROM 13 TO 11
CHANGING MSHR THRESHOLD FROM 11 TO 10
NO PREFETCH REQUEST BECAUSE PREFETCH SCORE 13 IS NOT GREATER THAN 20 (MSHR OCC = 11)
NO PREFETCH REQUEST BECAUSE PREFETCH SCORE 13 IS NOT GREATER THAN 20 (MSHR OCC = 12)
CHANGING MSHR THRESHOLD FROM 10 TO 11
CHANGING MSHR THRESHOLD FROM 11 TO 13
CHANGING MSHR THRESHOLD FROM 13 TO 15
CHANGING MSHR THRESHOLD FROM 15 TO 16
CHANGING MSHR THRESHOLD FROM 16 TO 18
CHANGING MSHR THRESHOLD FROM 18 TO 19
CHANGING MSHR THRESHOLD FROM 19 TO 21
CHANGING MSHR THRESHOLD FROM 21 TO 23
CHANGING MSHR THRESHOLD FROM 23 TO 24
CHANGING MSHR THRESHOLD FROM 24 TO 26
CHANGING MSHR THRESHOLD FROM 26 TO 28
Heartbeat CPU 0 instructions: 100000000 cycles: 65383640 heartbeat IPC: 1.00843 cumulative IPC: 1.03738 (Simulation time: 0 hr 3 min 13 sec) 
OFFSET CHANGED FROM 1 TO 4
OFFSET CHANGED FROM 4 TO 4
OFFSET CHANGED FROM 4 TO 4
PREFETCHING INTO L2 w/ PREFETCH SCORE 31 (MSHR OCC = 28)
PREFETCHING INTO L2 w/ PREFETCH SCORE 31 (MSHR OCC = 29)
OFFSET CHANGED FROM 4 TO 3
OFFSET CHANGED FROM 3 TO 1
OFFSET CHANGED FROM 1 TO 3
OFFSET CHANGED FROM 3 TO 3
OFFSET CHANGED FROM 3 TO 2
OFFSET CHANGED FROM 2 TO 4
OFFSET CHANGED FROM 4 TO 2
OFFSET CHANGED FROM 2 TO 2
OFFSET CHANGED FROM 2 TO 3
OFFSET CHANGED FROM 3 TO 1
OFFSET CHANGED FROM 1 TO 2
OFFSET CHANGED FROM 2 TO 2
OFFSET CHANGED FROM 2 TO 3
OFFSET CHANGED FROM 3 TO 2
OFFSET CHANGED FROM 2 TO 2
OFFSET CHANGED FROM 2 TO 2
OFFSET CHANGED FROM 2 TO 2
OFFSET CHANGED FROM 2 TO 3
OFFSET CHANGED FROM 3 TO 1
OFFSET CHANGED FROM 1 TO 1
OFFSET CHANGED FROM 1 TO 1
OFFSET CHANGED FROM 1 TO 1
OFFSET CHANGED FROM 1 TO 2
OFFSET CHANGED FROM 2 TO 2
OFFSET CHANGED FROM 2 TO 4
OFFSET CHANGED FROM 4 TO 1
OFFSET CHANGED FROM 1 TO 4
OFFSET CHANGED FROM 4 TO 4
OFFSET CHANGED FROM 4 TO 4
OFFSET CHANGED FROM 4 TO 4
OFFSET CHANGED FROM 4 TO 4
OFFSET CHANGED FROM 4 TO 3
OFFSET CHANGED FROM 3 TO 4
OFFSET CHANGED FROM 4 TO 2
OFFSET CHANGED FROM 2 TO 3
OFFSET CHANGED FROM 3 TO 2
OFFSET CHANGED FROM 2 TO 3
OFFSET CHANGED FROM 3 TO 4
OFFSET CHANGED FROM 4 TO 3
OFFSET CHANGED FROM 3 TO 2
OFFSET CHANGED FROM 2 TO 2
OFFSET CHANGED FROM 2 TO 2
OFFSET CHANGED FROM 2 TO 3
OFFSET CHANGED FROM 3 TO 2
OFFSET CHANGED FROM 2 TO 2
OFFSET CHANGED FROM 2 TO 3
OFFSET CHANGED FROM 3 TO 3
OFFSET CHANGED FROM 3 TO 1
OFFSET CHANGED FROM 1 TO 1
OFFSET CHANGED FROM 1 TO 1
OFFSET CHANGED FROM 1 TO 2
OFFSET CHANGED FROM 2 TO 1
OFFSET CHANGED FROM 1 TO 3
OFFSET CHANGED FROM 3 TO 1
OFFSET CHANGED FROM 1 TO 3
OFFSET CHANGED FROM 3 TO 4
OFFSET CHANGED FROM 4 TO 4
OFFSET CHANGED FROM 4 TO 3
PREFETCHING INTO L2 w/ PREFETCH SCORE 31 (MSHR OCC = 29)
PREFETCHING INTO L2 w/ PREFETCH SCORE 31 (MSHR OCC = 30)
PREFETCHING INTO L2 w/ PREFETCH SCORE 31 (MSHR OCC = 30)
OFFSET CHANGED FROM 3 TO 1
OFFSET CHANGED FROM 1 TO 3
Heartbeat CPU 0 instructions: 110000000 cycles: 74223212 heartbeat IPC: 1.13128 cumulative IPC: 1.05193 (Simulation time: 0 hr 3 min 31 sec) 
OFFSET CHANGED FROM 3 TO 1
OFFSET CHANGED FROM 1 TO 3
OFFSET CHANGED FROM 3 TO 2
OFFSET CHANGED FROM 2 TO 2
OFFSET CHANGED FROM 2 TO 2
OFFSET CHANGED FROM 2 TO 2
OFFSET CHANGED FROM 2 TO 2
OFFSET CHANGED FROM 2 TO 2
OFFSET CHANGED FROM 2 TO 2
OFFSET CHANGED FROM 2 TO 2
OFFSET CHANGED FROM 2 TO 3
OFFSET CHANGED FROM 3 TO 2
OFFSET CHANGED FROM 2 TO 3
OFFSET CHANGED FROM 3 TO 3
OFFSET CHANGED FROM 3 TO 2
OFFSET CHANGED FROM 2 TO 1
OFFSET CHANGED FROM 1 TO 4
OFFSET CHANGED FROM 4 TO 2
OFFSET CHANGED FROM 2 TO 2
OFFSET CHANGED FROM 2 TO 1
OFFSET CHANGED FROM 1 TO 1
OFFSET CHANGED FROM 1 TO 1
OFFSET CHANGED FROM 1 TO 1
OFFSET CHANGED FROM 1 TO 3
OFFSET CHANGED FROM 3 TO 4
OFFSET CHANGED FROM 4 TO 4
OFFSET CHANGED FROM 4 TO 4
OFFSET CHANGED FROM 4 TO 4
OFFSET CHANGED FROM 4 TO 2
OFFSET CHANGED FROM 2 TO 2
OFFSET CHANGED FROM 2 TO 3
OFFSET CHANGED FROM 3 TO 2
OFFSET CHANGED FROM 2 TO 1
OFFSET CHANGED FROM 1 TO 2
OFFSET CHANGED FROM 2 TO 2
OFFSET CHANGED FROM 2 TO 2
OFFSET CHANGED FROM 2 TO 2
OFFSET CHANGED FROM 2 TO 2
OFFSET CHANGED FROM 2 TO 3
OFFSET CHANGED FROM 3 TO 3
OFFSET CHANGED FROM 3 TO 2
OFFSET CHANGED FROM 2 TO 2
OFFSET CHANGED FROM 2 TO 1
OFFSET CHANGED FROM 1 TO 2
OFFSET CHANGED FROM 2 TO 1
OFFSET CHANGED FROM 1 TO 2
OFFSET CHANGED FROM 2 TO 3
OFFSET CHANGED FROM 3 TO 2
OFFSET CHANGED FROM 2 TO 2
OFFSET CHANGED FROM 2 TO 1
OFFSET CHANGED FROM 1 TO 1
OFFSET CHANGED FROM 1 TO 1
OFFSET CHANGED FROM 1 TO 2
OFFSET CHANGED FROM 2 TO 2
OFFSET CHANGED FROM 2 TO 2
OFFSET CHANGED FROM 2 TO 3
OFFSET CHANGED FROM 3 TO 1
OFFSET CHANGED FROM 1 TO 2
OFFSET CHANGED FROM 2 TO 2
OFFSET CHANGED FROM 2 TO 2
OFFSET CHANGED FROM 2 TO 1
OFFSET CHANGED FROM 1 TO 1
OFFSET CHANGED FROM 1 TO 1
Heartbeat CPU 0 instructions: 120000001 cycles: 83752249 heartbeat IPC: 1.04942 cumulative IPC: 1.05157 (Simulation time: 0 hr 3 min 50 sec) 
OFFSET CHANGED FROM 1 TO 4
OFFSET CHANGED FROM 4 TO 4
OFFSET CHANGED FROM 4 TO 4
OFFSET CHANGED FROM 4 TO 3
OFFSET CHANGED FROM 3 TO 6
OFFSET CHANGED FROM 6 TO 2
OFFSET CHANGED FROM 2 TO 2
OFFSET CHANGED FROM 2 TO 2
OFFSET CHANGED FROM 2 TO 4
OFFSET CHANGED FROM 4 TO 3
OFFSET CHANGED FROM 3 TO 3
OFFSET CHANGED FROM 3 TO 3
OFFSET CHANGED FROM 3 TO 2
OFFSET CHANGED FROM 2 TO 2
OFFSET CHANGED FROM 2 TO 3
OFFSET CHANGED FROM 3 TO 2
OFFSET CHANGED FROM 2 TO 4
OFFSET CHANGED FROM 4 TO 2
OFFSET CHANGED FROM 2 TO 3
OFFSET CHANGED FROM 3 TO 2
OFFSET CHANGED FROM 2 TO 3
OFFSET CHANGED FROM 3 TO 1
OFFSET CHANGED FROM 1 TO 1
OFFSET CHANGED FROM 1 TO 1
OFFSET CHANGED FROM 1 TO 1
OFFSET CHANGED FROM 1 TO 1
OFFSET CHANGED FROM 1 TO 3
OFFSET CHANGED FROM 3 TO 2
OFFSET CHANGED FROM 2 TO 1
OFFSET CHANGED FROM 1 TO 1
OFFSET CHANGED FROM 1 TO 1
OFFSET CHANGED FROM 1 TO 1
OFFSET CHANGED FROM 1 TO 1
OFFSET CHANGED FROM 1 TO 1
OFFSET CHANGED FROM 1 TO 2
OFFSET CHANGED FROM 2 TO 1
OFFSET CHANGED FROM 1 TO 1
OFFSET CHANGED FROM 1 TO 1
OFFSET CHANGED FROM 1 TO 2
OFFSET CHANGED FROM 2 TO 3
OFFSET CHANGED FROM 3 TO 4
OFFSET CHANGED FROM 4 TO 4
OFFSET CHANGED FROM 4 TO 3
PREFETCHING INTO L2 w/ PREFETCH SCORE 31 (MSHR OCC = 28)
PREFETCHING INTO L2 w/ PREFETCH SCORE 31 (MSHR OCC = 29)
PREFETCHING INTO L2 w/ PREFETCH SCORE 31 (MSHR OCC = 29)
OFFSET CHANGED FROM 3 TO 6
OFFSET CHANGED FROM 6 TO 2
OFFSET CHANGED FROM 2 TO 2
OFFSET CHANGED FROM 2 TO 2
OFFSET CHANGED FROM 2 TO 2
OFFSET CHANGED FROM 2 TO 3
OFFSET CHANGED FROM 3 TO 3
OFFSET CHANGED FROM 3 TO 2
OFFSET CHANGED FROM 2 TO 2
OFFSET CHANGED FROM 2 TO 3
OFFSET CHANGED FROM 3 TO 2
OFFSET CHANGED FROM 2 TO 2
OFFSET CHANGED FROM 2 TO 2
OFFSET CHANGED FROM 2 TO 2
OFFSET CHANGED FROM 2 TO 2
OFFSET CHANGED FROM 2 TO 2
OFFSET CHANGED FROM 2 TO 1
OFFSET CHANGED FROM 1 TO 1
OFFSET CHANGED FROM 1 TO 1
OFFSET CHANGED FROM 1 TO 1
OFFSET CHANGED FROM 1 TO 2
Heartbeat CPU 0 instructions: 130000003 cycles: 92878276 heartbeat IPC: 1.09577 cumulative IPC: 1.0569 (Simulation time: 0 hr 4 min 8 sec) 
OFFSET CHANGED FROM 2 TO 1
OFFSET CHANGED FROM 1 TO 2
OFFSET CHANGED FROM 2 TO 2
OFFSET CHANGED FROM 2 TO 1
OFFSET CHANGED FROM 1 TO 1
OFFSET CHANGED FROM 1 TO 1
OFFSET CHANGED FROM 1 TO 1
OFFSET CHANGED FROM 1 TO 1
OFFSET CHANGED FROM 1 TO 1
OFFSET CHANGED FROM 1 TO 2
OFFSET CHANGED FROM 2 TO 1
OFFSET CHANGED FROM 1 TO 4
OFFSET CHANGED FROM 4 TO 3
OFFSET CHANGED FROM 3 TO 4
OFFSET CHANGED FROM 4 TO 2
OFFSET CHANGED FROM 2 TO 2
OFFSET CHANGED FROM 2 TO 2
OFFSET CHANGED FROM 2 TO 2
OFFSET CHANGED FROM 2 TO 2
OFFSET CHANGED FROM 2 TO 3
OFFSET CHANGED FROM 3 TO 4
OFFSET CHANGED FROM 4 TO 4
OFFSET CHANGED FROM 4 TO 2
OFFSET CHANGED FROM 2 TO 2
OFFSET CHANGED FROM 2 TO 1
OFFSET CHANGED FROM 1 TO 3
OFFSET CHANGED FROM 3 TO 2
OFFSET CHANGED FROM 2 TO 2
OFFSET CHANGED FROM 2 TO 2
OFFSET CHANGED FROM 2 TO 3
OFFSET CHANGED FROM 3 TO 3
OFFSET CHANGED FROM 3 TO 1
OFFSET CHANGED FROM 1 TO 2
OFFSET CHANGED FROM 2 TO 2
OFFSET CHANGED FROM 2 TO 3
OFFSET CHANGED FROM 3 TO 2
OFFSET CHANGED FROM 2 TO 4
OFFSET CHANGED FROM 4 TO 1
OFFSET CHANGED FROM 1 TO 2
OFFSET CHANGED FROM 2 TO 1
OFFSET CHANGED FROM 1 TO 1
OFFSET CHANGED FROM 1 TO 4
OFFSET CHANGED FROM 4 TO 3
OFFSET CHANGED FROM 3 TO 4
PREFETCHING INTO L2 w/ PREFETCH SCORE 31 (MSHR OCC = 28)
PREFETCHING INTO L2 w/ PREFETCH SCORE 31 (MSHR OCC = 28)
PREFETCHING INTO L2 w/ PREFETCH SCORE 31 (MSHR OCC = 29)
PREFETCHING INTO L2 w/ PREFETCH SCORE 31 (MSHR OCC = 28)
PREFETCHING INTO L2 w/ PREFETCH SCORE 31 (MSHR OCC = 29)
PREFETCHING INTO L2 w/ PREFETCH SCORE 31 (MSHR OCC = 29)
PREFETCHING INTO L2 w/ PREFETCH SCORE 31 (MSHR OCC = 30)
PREFETCHING INTO L2 w/ PREFETCH SCORE 31 (MSHR OCC = 30)
OFFSET CHANGED FROM 4 TO 4
OFFSET CHANGED FROM 4 TO 4
OFFSET CHANGED FROM 4 TO 2
OFFSET CHANGED FROM 2 TO 2
OFFSET CHANGED FROM 2 TO 2
OFFSET CHANGED FROM 2 TO 2
OFFSET CHANGED FROM 2 TO 1
OFFSET CHANGED FROM 1 TO 2
OFFSET CHANGED FROM 2 TO 3
OFFSET CHANGED FROM 3 TO 4
OFFSET CHANGED FROM 4 TO 3
OFFSET CHANGED FROM 3 TO 4
OFFSET CHANGED FROM 4 TO 2
OFFSET CHANGED FROM 2 TO 3
OFFSET CHANGED FROM 3 TO 3
OFFSET CHANGED FROM 3 TO 2
OFFSET CHANGED FROM 2 TO 3
OFFSET CHANGED FROM 3 TO 2
OFFSET CHANGED FROM 2 TO 2
Heartbeat CPU 0 instructions: 140000000 cycles: 102054939 heartbeat IPC: 1.08972 cumulative IPC: 1.06045 (Simulation time: 0 hr 4 min 26 sec) 
OFFSET CHANGED FROM 2 TO 1
OFFSET CHANGED FROM 1 TO 1
OFFSET CHANGED FROM 1 TO 1
OFFSET CHANGED FROM 1 TO 1
OFFSET CHANGED FROM 1 TO 2
OFFSET CHANGED FROM 2 TO 2
OFFSET CHANGED FROM 2 TO 2
OFFSET CHANGED FROM 2 TO 2
OFFSET CHANGED FROM 2 TO 6
OFFSET CHANGED FROM 6 TO 4
OFFSET CHANGED FROM 4 TO 5
OFFSET CHANGED FROM 5 TO 3
OFFSET CHANGED FROM 3 TO 3
OFFSET CHANGED FROM 3 TO 2
OFFSET CHANGED FROM 2 TO 2
OFFSET CHANGED FROM 2 TO 2
OFFSET CHANGED FROM 2 TO 3
OFFSET CHANGED FROM 3 TO 2
OFFSET CHANGED FROM 2 TO 2
OFFSET CHANGED FROM 2 TO 3
OFFSET CHANGED FROM 3 TO 2
OFFSET CHANGED FROM 2 TO 3
OFFSET CHANGED FROM 3 TO 2
OFFSET CHANGED FROM 2 TO 2
OFFSET CHANGED FROM 2 TO 2
OFFSET CHANGED FROM 2 TO 2
OFFSET CHANGED FROM 2 TO 2
OFFSET CHANGED FROM 2 TO 2
OFFSET CHANGED FROM 2 TO 1
OFFSET CHANGED FROM 1 TO 1
OFFSET CHANGED FROM 1 TO 1
OFFSET CHANGED FROM 1 TO 1
OFFSET CHANGED FROM 1 TO 2
OFFSET CHANGED FROM 2 TO 2
OFFSET CHANGED FROM 2 TO 1
OFFSET CHANGED FROM 1 TO 2
OFFSET CHANGED FROM 2 TO 1
OFFSET CHANGED FROM 1 TO 1
OFFSET CHANGED FROM 1 TO 3
OFFSET CHANGED FROM 3 TO 3
OFFSET CHANGED FROM 3 TO 4
PREFETCHING INTO L2 w/ PREFETCH SCORE 31 (MSHR OCC = 28)
PREFETCHING INTO L2 w/ PREFETCH SCORE 31 (MSHR OCC = 28)
PREFETCHING INTO L2 w/ PREFETCH SCORE 31 (MSHR OCC = 31)
PREFETCHING INTO L2 w/ PREFETCH SCORE 31 (MSHR OCC = 32)
PREFETCHING INTO L2 w/ PREFETCH SCORE 31 (MSHR OCC = 29)
PREFETCHING INTO L2 w/ PREFETCH SCORE 31 (MSHR OCC = 30)
PREFETCHING INTO L2 w/ PREFETCH SCORE 31 (MSHR OCC = 28)
OFFSET CHANGED FROM 4 TO 4
OFFSET CHANGED FROM 4 TO 5
OFFSET CHANGED FROM 5 TO 2
OFFSET CHANGED FROM 2 TO 3
OFFSET CHANGED FROM 3 TO 2
OFFSET CHANGED FROM 2 TO 3
OFFSET CHANGED FROM 3 TO 2
OFFSET CHANGED FROM 2 TO 2
OFFSET CHANGED FROM 2 TO 3
OFFSET CHANGED FROM 3 TO 2
OFFSET CHANGED FROM 2 TO 2
OFFSET CHANGED FROM 2 TO 2
OFFSET CHANGED FROM 2 TO 2
OFFSET CHANGED FROM 2 TO 3
OFFSET CHANGED FROM 3 TO 2
OFFSET CHANGED FROM 2 TO 2
OFFSET CHANGED FROM 2 TO 1
OFFSET CHANGED FROM 1 TO 2
OFFSET CHANGED FROM 2 TO 1
OFFSET CHANGED FROM 1 TO 2
OFFSET CHANGED FROM 2 TO 1
OFFSET CHANGED FROM 1 TO 1
Heartbeat CPU 0 instructions: 150000000 cycles: 111132629 heartbeat IPC: 1.1016 cumulative IPC: 1.06443 (Simulation time: 0 hr 4 min 44 sec) 
OFFSET CHANGED FROM 1 TO 1
OFFSET CHANGED FROM 1 TO 1
OFFSET CHANGED FROM 1 TO 1
OFFSET CHANGED FROM 1 TO 1
OFFSET CHANGED FROM 1 TO 1
OFFSET CHANGED FROM 1 TO 4
OFFSET CHANGED FROM 4 TO 3
OFFSET CHANGED FROM 3 TO 4
PREFETCHING INTO L2 w/ PREFETCH SCORE 31 (MSHR OCC = 28)
PREFETCHING INTO L2 w/ PREFETCH SCORE 31 (MSHR OCC = 28)
PREFETCHING INTO L2 w/ PREFETCH SCORE 31 (MSHR OCC = 28)
PREFETCHING INTO L2 w/ PREFETCH SCORE 31 (MSHR OCC = 28)
PREFETCHING INTO L2 w/ PREFETCH SCORE 31 (MSHR OCC = 29)
PREFETCHING INTO L2 w/ PREFETCH SCORE 31 (MSHR OCC = 30)
PREFETCHING INTO L2 w/ PREFETCH SCORE 31 (MSHR OCC = 32)
PREFETCHING INTO L2 w/ PREFETCH SCORE 31 (MSHR OCC = 28)
PREFETCHING INTO L2 w/ PREFETCH SCORE 31 (MSHR OCC = 32)
PREFETCHING INTO L2 w/ PREFETCH SCORE 31 (MSHR OCC = 31)
PREFETCHING INTO L2 w/ PREFETCH SCORE 31 (MSHR OCC = 28)
PREFETCHING INTO L2 w/ PREFETCH SCORE 31 (MSHR OCC = 28)
PREFETCHING INTO L2 w/ PREFETCH SCORE 31 (MSHR OCC = 28)
PREFETCHING INTO L2 w/ PREFETCH SCORE 31 (MSHR OCC = 29)
OFFSET CHANGED FROM 4 TO 1
OFFSET CHANGED FROM 1 TO 3
OFFSET CHANGED FROM 3 TO 2
OFFSET CHANGED FROM 2 TO 1
OFFSET CHANGED FROM 1 TO 4
OFFSET CHANGED FROM 4 TO 2
OFFSET CHANGED FROM 2 TO 2
OFFSET CHANGED FROM 2 TO 3
OFFSET CHANGED FROM 3 TO 2
OFFSET CHANGED FROM 2 TO 2
OFFSET CHANGED FROM 2 TO 2
OFFSET CHANGED FROM 2 TO 2
OFFSET CHANGED FROM 2 TO 3
OFFSET CHANGED FROM 3 TO 2
OFFSET CHANGED FROM 2 TO 2
OFFSET CHANGED FROM 2 TO 3
OFFSET CHANGED FROM 3 TO 2
OFFSET CHANGED FROM 2 TO 1
OFFSET CHANGED FROM 1 TO 2
OFFSET CHANGED FROM 2 TO 3
OFFSET CHANGED FROM 3 TO 1
OFFSET CHANGED FROM 1 TO 1
OFFSET CHANGED FROM 1 TO 2
OFFSET CHANGED FROM 2 TO 1
OFFSET CHANGED FROM 1 TO 2
OFFSET CHANGED FROM 2 TO 1
OFFSET CHANGED FROM 1 TO 3
OFFSET CHANGED FROM 3 TO 4
OFFSET CHANGED FROM 4 TO 3
PREFETCHING INTO L2 w/ PREFETCH SCORE 31 (MSHR OCC = 28)
PREFETCHING INTO L2 w/ PREFETCH SCORE 31 (MSHR OCC = 29)
PREFETCHING INTO L2 w/ PREFETCH SCORE 31 (MSHR OCC = 28)
OFFSET CHANGED FROM 3 TO 4
OFFSET CHANGED FROM 4 TO 6
OFFSET CHANGED FROM 6 TO 2
OFFSET CHANGED FROM 2 TO 2
OFFSET CHANGED FROM 2 TO 4
OFFSET CHANGED FROM 4 TO 3
OFFSET CHANGED FROM 3 TO 2
OFFSET CHANGED FROM 2 TO 3
OFFSET CHANGED FROM 3 TO 2
OFFSET CHANGED FROM 2 TO 2
OFFSET CHANGED FROM 2 TO 2
OFFSET CHANGED FROM 2 TO 3
OFFSET CHANGED FROM 3 TO 2
OFFSET CHANGED FROM 2 TO 3
OFFSET CHANGED FROM 3 TO 3
OFFSET CHANGED FROM 3 TO 2
OFFSET CHANGED FROM 2 TO 1
OFFSET CHANGED FROM 1 TO 1
OFFSET CHANGED FROM 1 TO 1
OFFSET CHANGED FROM 1 TO 1
OFFSET CHANGED FROM 1 TO 1
Heartbeat CPU 0 instructions: 160000002 cycles: 119924987 heartbeat IPC: 1.13735 cumulative IPC: 1.07067 (Simulation time: 0 hr 5 min 2 sec) 
OFFSET CHANGED FROM 1 TO 3
OFFSET CHANGED FROM 3 TO 1
OFFSET CHANGED FROM 1 TO 2
OFFSET CHANGED FROM 2 TO 1
OFFSET CHANGED FROM 1 TO 1
OFFSET CHANGED FROM 1 TO 4
OFFSET CHANGED FROM 4 TO 3
OFFSET CHANGED FROM 3 TO 4
PREFETCHING INTO L2 w/ PREFETCH SCORE 31 (MSHR OCC = 29)
PREFETCHING INTO L2 w/ PREFETCH SCORE 31 (MSHR OCC = 30)
PREFETCHING INTO L2 w/ PREFETCH SCORE 31 (MSHR OCC = 28)
PREFETCHING INTO L2 w/ PREFETCH SCORE 31 (MSHR OCC = 32)
PREFETCHING INTO L2 w/ PREFETCH SCORE 31 (MSHR OCC = 28)
PREFETCHING INTO L2 w/ PREFETCH SCORE 31 (MSHR OCC = 28)
OFFSET CHANGED FROM 4 TO 5
OFFSET CHANGED FROM 5 TO 1
OFFSET CHANGED FROM 1 TO 4
OFFSET CHANGED FROM 4 TO 3
OFFSET CHANGED FROM 3 TO 2
OFFSET CHANGED FROM 2 TO 2
OFFSET CHANGED FROM 2 TO 3
OFFSET CHANGED FROM 3 TO 2
OFFSET CHANGED FROM 2 TO 2
OFFSET CHANGED FROM 2 TO 3
OFFSET CHANGED FROM 3 TO 1
OFFSET CHANGED FROM 1 TO 2
OFFSET CHANGED FROM 2 TO 2
OFFSET CHANGED FROM 2 TO 3
OFFSET CHANGED FROM 3 TO 3
OFFSET CHANGED FROM 3 TO 1
OFFSET CHANGED FROM 1 TO 3
OFFSET CHANGED FROM 3 TO 2
OFFSET CHANGED FROM 2 TO 1
OFFSET CHANGED FROM 1 TO 1
OFFSET CHANGED FROM 1 TO 2
OFFSET CHANGED FROM 2 TO 1
OFFSET CHANGED FROM 1 TO 1
OFFSET CHANGED FROM 1 TO 2
OFFSET CHANGED FROM 2 TO 1
OFFSET CHANGED FROM 1 TO 3
OFFSET CHANGED FROM 3 TO 4
OFFSET CHANGED FROM 4 TO 4
OFFSET CHANGED FROM 4 TO 4
OFFSET CHANGED FROM 4 TO 5
OFFSET CHANGED FROM 5 TO 2
OFFSET CHANGED FROM 2 TO 3
OFFSET CHANGED FROM 3 TO 3
OFFSET CHANGED FROM 3 TO 2
OFFSET CHANGED FROM 2 TO 1
OFFSET CHANGED FROM 1 TO 2
OFFSET CHANGED FROM 2 TO 3
OFFSET CHANGED FROM 3 TO 2
OFFSET CHANGED FROM 2 TO 2
OFFSET CHANGED FROM 2 TO 2
OFFSET CHANGED FROM 2 TO 2
OFFSET CHANGED FROM 2 TO 2
OFFSET CHANGED FROM 2 TO 2
OFFSET CHANGED FROM 2 TO 2
OFFSET CHANGED FROM 2 TO 3
OFFSET CHANGED FROM 3 TO 2
OFFSET CHANGED FROM 2 TO 1
OFFSET CHANGED FROM 1 TO 1
OFFSET CHANGED FROM 1 TO 1
OFFSET CHANGED FROM 1 TO 1
OFFSET CHANGED FROM 1 TO 1
OFFSET CHANGED FROM 1 TO 1
OFFSET CHANGED FROM 1 TO 1
OFFSET CHANGED FROM 1 TO 1
Heartbeat CPU 0 instructions: 170000001 cycles: 129039910 heartbeat IPC: 1.0971 cumulative IPC: 1.07282 (Simulation time: 0 hr 5 min 20 sec) 
OFFSET CHANGED FROM 1 TO 3
OFFSET CHANGED FROM 3 TO 3
OFFSET CHANGED FROM 3 TO 3
PREFETCHING INTO L2 w/ PREFETCH SCORE 31 (MSHR OCC = 29)
PREFETCHING INTO L2 w/ PREFETCH SCORE 31 (MSHR OCC = 32)
PREFETCHING INTO L2 w/ PREFETCH SCORE 31 (MSHR OCC = 32)
PREFETCHING INTO L2 w/ PREFETCH SCORE 31 (MSHR OCC = 29)
PREFETCHING INTO L2 w/ PREFETCH SCORE 31 (MSHR OCC = 30)
PREFETCHING INTO L2 w/ PREFETCH SCORE 31 (MSHR OCC = 28)
PREFETCHING INTO L2 w/ PREFETCH SCORE 31 (MSHR OCC = 28)
PREFETCHING INTO L2 w/ PREFETCH SCORE 31 (MSHR OCC = 29)
PREFETCHING INTO L2 w/ PREFETCH SCORE 31 (MSHR OCC = 32)
PREFETCHING INTO L2 w/ PREFETCH SCORE 31 (MSHR OCC = 29)
PREFETCHING INTO L2 w/ PREFETCH SCORE 31 (MSHR OCC = 29)
PREFETCHING INTO L2 w/ PREFETCH SCORE 31 (MSHR OCC = 30)
PREFETCHING INTO L2 w/ PREFETCH SCORE 31 (MSHR OCC = 28)
PREFETCHING INTO L2 w/ PREFETCH SCORE 31 (MSHR OCC = 29)
PREFETCHING INTO L2 w/ PREFETCH SCORE 31 (MSHR OCC = 29)
PREFETCHING INTO L2 w/ PREFETCH SCORE 31 (MSHR OCC = 29)
PREFETCHING INTO L2 w/ PREFETCH SCORE 31 (MSHR OCC = 31)
PREFETCHING INTO L2 w/ PREFETCH SCORE 31 (MSHR OCC = 32)
OFFSET CHANGED FROM 3 TO 6
OFFSET CHANGED FROM 6 TO 8
OFFSET CHANGED FROM 8 TO 3
OFFSET CHANGED FROM 3 TO 3
OFFSET CHANGED FROM 3 TO 2
OFFSET CHANGED FROM 2 TO 2
OFFSET CHANGED FROM 2 TO 3
OFFSET CHANGED FROM 3 TO 2
OFFSET CHANGED FROM 2 TO 2
OFFSET CHANGED FROM 2 TO 2
OFFSET CHANGED FROM 2 TO 3
OFFSET CHANGED FROM 3 TO 2
OFFSET CHANGED FROM 2 TO 2
OFFSET CHANGED FROM 2 TO 2
OFFSET CHANGED FROM 2 TO 2
OFFSET CHANGED FROM 2 TO 2
OFFSET CHANGED FROM 2 TO 3
OFFSET CHANGED FROM 3 TO 2
OFFSET CHANGED FROM 2 TO 2
OFFSET CHANGED FROM 2 TO 1
OFFSET CHANGED FROM 1 TO 2
OFFSET CHANGED FROM 2 TO 1
OFFSET CHANGED FROM 1 TO 1
OFFSET CHANGED FROM 1 TO 2
OFFSET CHANGED FROM 2 TO 3
OFFSET CHANGED FROM 3 TO 2
OFFSET CHANGED FROM 2 TO 1
OFFSET CHANGED FROM 1 TO 1
PREFETCHING INTO L2 w/ PREFETCH SCORE 31 (MSHR OCC = 28)
PREFETCHING INTO L2 w/ PREFETCH SCORE 31 (MSHR OCC = 30)
PREFETCHING INTO L2 w/ PREFETCH SCORE 31 (MSHR OCC = 28)
PREFETCHING INTO L2 w/ PREFETCH SCORE 31 (MSHR OCC = 28)
PREFETCHING INTO L2 w/ PREFETCH SCORE 31 (MSHR OCC = 28)
PREFETCHING INTO L2 w/ PREFETCH SCORE 31 (MSHR OCC = 28)
PREFETCHING INTO L2 w/ PREFETCH SCORE 31 (MSHR OCC = 28)
OFFSET CHANGED FROM 1 TO 3
OFFSET CHANGED FROM 3 TO 3
OFFSET CHANGED FROM 3 TO 3
OFFSET CHANGED FROM 3 TO 2
OFFSET CHANGED FROM 2 TO 2
OFFSET CHANGED FROM 2 TO 4
OFFSET CHANGED FROM 4 TO 2
OFFSET CHANGED FROM 2 TO 2
OFFSET CHANGED FROM 2 TO 2
OFFSET CHANGED FROM 2 TO 2
OFFSET CHANGED FROM 2 TO 2
OFFSET CHANGED FROM 2 TO 3
OFFSET CHANGED FROM 3 TO 2
OFFSET CHANGED FROM 2 TO 2
OFFSET CHANGED FROM 2 TO 2
OFFSET CHANGED FROM 2 TO 2
OFFSET CHANGED FROM 2 TO 2
OFFSET CHANGED FROM 2 TO 2
OFFSET CHANGED FROM 2 TO 3
OFFSET CHANGED FROM 3 TO 1
OFFSET CHANGED FROM 1 TO 1
OFFSET CHANGED FROM 1 TO 3
OFFSET CHANGED FROM 3 TO 1
OFFSET CHANGED FROM 1 TO 3
OFFSET CHANGED FROM 3 TO 1
OFFSET CHANGED FROM 1 TO 1
OFFSET CHANGED FROM 1 TO 3
OFFSET CHANGED FROM 3 TO 1
OFFSET CHANGED FROM 1 TO 4
OFFSET CHANGED FROM 4 TO 4
PREFETCHING INTO L2 w/ PREFETCH SCORE 31 (MSHR OCC = 28)
PREFETCHING INTO L2 w/ PREFETCH SCORE 31 (MSHR OCC = 29)
PREFETCHING INTO L2 w/ PREFETCH SCORE 31 (MSHR OCC = 30)
PREFETCHING INTO L2 w/ PREFETCH SCORE 31 (MSHR OCC = 31)
PREFETCHING INTO L2 w/ PREFETCH SCORE 31 (MSHR OCC = 32)
PREFETCHING INTO L2 w/ PREFETCH SCORE 31 (MSHR OCC = 32)
PREFETCHING INTO L2 w/ PREFETCH SCORE 31 (MSHR OCC = 28)
PREFETCHING INTO L2 w/ PREFETCH SCORE 31 (MSHR OCC = 29)
PREFETCHING INTO L2 w/ PREFETCH SCORE 31 (MSHR OCC = 31)
PREFETCHING INTO L2 w/ PREFETCH SCORE 31 (MSHR OCC = 28)
PREFETCHING INTO L2 w/ PREFETCH SCORE 31 (MSHR OCC = 29)
PREFETCHING INTO L2 w/ PREFETCH SCORE 31 (MSHR OCC = 28)
PREFETCHING INTO L2 w/ PREFETCH SCORE 31 (MSHR OCC = 28)
OFFSET CHANGED FROM 4 TO 4
OFFSET CHANGED FROM 4 TO 2
OFFSET CHANGED FROM 2 TO 2
Heartbeat CPU 0 instructions: 180000001 cycles: 137846392 heartbeat IPC: 1.13553 cumulative IPC: 1.0774 (Simulation time: 0 hr 5 min 38 sec) 
OFFSET CHANGED FROM 2 TO 3
OFFSET CHANGED FROM 3 TO 2
OFFSET CHANGED FROM 2 TO 2
OFFSET CHANGED FROM 2 TO 2
OFFSET CHANGED FROM 2 TO 3
OFFSET CHANGED FROM 3 TO 2
OFFSET CHANGED FROM 2 TO 2
OFFSET CHANGED FROM 2 TO 2
OFFSET CHANGED FROM 2 TO 2
OFFSET CHANGED FROM 2 TO 4
OFFSET CHANGED FROM 4 TO 2
OFFSET CHANGED FROM 2 TO 2
OFFSET CHANGED FROM 2 TO 2
OFFSET CHANGED FROM 2 TO 1
OFFSET CHANGED FROM 1 TO 1
OFFSET CHANGED FROM 1 TO 1
OFFSET CHANGED FROM 1 TO 1
OFFSET CHANGED FROM 1 TO 1
OFFSET CHANGED FROM 1 TO 1
OFFSET CHANGED FROM 1 TO 2
OFFSET CHANGED FROM 2 TO 1
OFFSET CHANGED FROM 1 TO 1
OFFSET CHANGED FROM 1 TO 1
OFFSET CHANGED FROM 1 TO 4
OFFSET CHANGED FROM 4 TO 3
OFFSET CHANGED FROM 3 TO 3
PREFETCHING INTO L2 w/ PREFETCH SCORE 31 (MSHR OCC = 31)
PREFETCHING INTO L2 w/ PREFETCH SCORE 31 (MSHR OCC = 32)
PREFETCHING INTO L2 w/ PREFETCH SCORE 31 (MSHR OCC = 32)
PREFETCHING INTO L2 w/ PREFETCH SCORE 31 (MSHR OCC = 28)
PREFETCHING INTO L2 w/ PREFETCH SCORE 31 (MSHR OCC = 28)
PREFETCHING INTO L2 w/ PREFETCH SCORE 31 (MSHR OCC = 28)
PREFETCHING INTO L2 w/ PREFETCH SCORE 31 (MSHR OCC = 29)
OFFSET CHANGED FROM 3 TO 6
OFFSET CHANGED FROM 6 TO 9
OFFSET CHANGED FROM 9 TO 2
OFFSET CHANGED FROM 2 TO 2
OFFSET CHANGED FROM 2 TO 3
OFFSET CHANGED FROM 3 TO 2
OFFSET CHANGED FROM 2 TO 2
OFFSET CHANGED FROM 2 TO 3
OFFSET CHANGED FROM 3 TO 2
OFFSET CHANGED FROM 2 TO 3
OFFSET CHANGED FROM 3 TO 2
OFFSET CHANGED FROM 2 TO 2
OFFSET CHANGED FROM 2 TO 2
OFFSET CHANGED FROM 2 TO 3
OFFSET CHANGED FROM 3 TO 2
OFFSET CHANGED FROM 2 TO 2
OFFSET CHANGED FROM 2 TO 1
OFFSET CHANGED FROM 1 TO 2
OFFSET CHANGED FROM 2 TO 3
OFFSET CHANGED FROM 3 TO 1
OFFSET CHANGED FROM 1 TO 1
OFFSET CHANGED FROM 1 TO 1
OFFSET CHANGED FROM 1 TO 2
OFFSET CHANGED FROM 2 TO 1
OFFSET CHANGED FROM 1 TO 1
OFFSET CHANGED FROM 1 TO 2
OFFSET CHANGED FROM 2 TO 4
OFFSET CHANGED FROM 4 TO 4
OFFSET CHANGED FROM 4 TO 4
PREFETCHING INTO L2 w/ PREFETCH SCORE 31 (MSHR OCC = 28)
PREFETCHING INTO L2 w/ PREFETCH SCORE 31 (MSHR OCC = 30)
PREFETCHING INTO L2 w/ PREFETCH SCORE 31 (MSHR OCC = 31)
PREFETCHING INTO L2 w/ PREFETCH SCORE 31 (MSHR OCC = 30)
PREFETCHING INTO L2 w/ PREFETCH SCORE 31 (MSHR OCC = 31)
PREFETCHING INTO L2 w/ PREFETCH SCORE 31 (MSHR OCC = 31)
PREFETCHING INTO L2 w/ PREFETCH SCORE 31 (MSHR OCC = 31)
PREFETCHING INTO L2 w/ PREFETCH SCORE 31 (MSHR OCC = 29)
PREFETCHING INTO L2 w/ PREFETCH SCORE 31 (MSHR OCC = 30)
PREFETCHING INTO L2 w/ PREFETCH SCORE 31 (MSHR OCC = 31)
OFFSET CHANGED FROM 4 TO 4
OFFSET CHANGED FROM 4 TO 2
OFFSET CHANGED FROM 2 TO 2
OFFSET CHANGED FROM 2 TO 2
OFFSET CHANGED FROM 2 TO 2
OFFSET CHANGED FROM 2 TO 2
OFFSET CHANGED FROM 2 TO 4
OFFSET CHANGED FROM 4 TO 2
OFFSET CHANGED FROM 2 TO 2
OFFSET CHANGED FROM 2 TO 2
OFFSET CHANGED FROM 2 TO 2
Heartbeat CPU 0 instructions: 190000000 cycles: 146466936 heartbeat IPC: 1.16002 cumulative IPC: 1.08291 (Simulation time: 0 hr 5 min 56 sec) 
OFFSET CHANGED FROM 2 TO 2
OFFSET CHANGED FROM 2 TO 2
OFFSET CHANGED FROM 2 TO 2
OFFSET CHANGED FROM 2 TO 2
OFFSET CHANGED FROM 2 TO 1
OFFSET CHANGED FROM 1 TO 1
OFFSET CHANGED FROM 1 TO 3
OFFSET CHANGED FROM 3 TO 1
OFFSET CHANGED FROM 1 TO 1
OFFSET CHANGED FROM 1 TO 1
OFFSET CHANGED FROM 1 TO 1
OFFSET CHANGED FROM 1 TO 1
OFFSET CHANGED FROM 1 TO 1
OFFSET CHANGED FROM 1 TO 2
OFFSET CHANGED FROM 2 TO 1
OFFSET CHANGED FROM 1 TO 4
OFFSET CHANGED FROM 4 TO 4
OFFSET CHANGED FROM 4 TO 4
PREFETCHING INTO L2 w/ PREFETCH SCORE 31 (MSHR OCC = 28)
PREFETCHING INTO L2 w/ PREFETCH SCORE 31 (MSHR OCC = 28)
PREFETCHING INTO L2 w/ PREFETCH SCORE 31 (MSHR OCC = 28)
PREFETCHING INTO L2 w/ PREFETCH SCORE 31 (MSHR OCC = 28)
PREFETCHING INTO L2 w/ PREFETCH SCORE 31 (MSHR OCC = 28)
PREFETCHING INTO L2 w/ PREFETCH SCORE 31 (MSHR OCC = 29)
PREFETCHING INTO L2 w/ PREFETCH SCORE 31 (MSHR OCC = 28)
PREFETCHING INTO L2 w/ PREFETCH SCORE 31 (MSHR OCC = 29)
PREFETCHING INTO L2 w/ PREFETCH SCORE 31 (MSHR OCC = 30)
PREFETCHING INTO L2 w/ PREFETCH SCORE 31 (MSHR OCC = 30)
PREFETCHING INTO L2 w/ PREFETCH SCORE 31 (MSHR OCC = 28)
PREFETCHING INTO L2 w/ PREFETCH SCORE 31 (MSHR OCC = 29)
PREFETCHING INTO L2 w/ PREFETCH SCORE 31 (MSHR OCC = 28)
PREFETCHING INTO L2 w/ PREFETCH SCORE 31 (MSHR OCC = 29)
PREFETCHING INTO L2 w/ PREFETCH SCORE 31 (MSHR OCC = 30)
PREFETCHING INTO L2 w/ PREFETCH SCORE 31 (MSHR OCC = 31)
PREFETCHING INTO L2 w/ PREFETCH SCORE 31 (MSHR OCC = 32)
PREFETCHING INTO L2 w/ PREFETCH SCORE 31 (MSHR OCC = 32)
PREFETCHING INTO L2 w/ PREFETCH SCORE 31 (MSHR OCC = 32)
PREFETCHING INTO L2 w/ PREFETCH SCORE 31 (MSHR OCC = 32)
PREFETCHING INTO L2 w/ PREFETCH SCORE 31 (MSHR OCC = 32)
OFFSET CHANGED FROM 4 TO 2
OFFSET CHANGED FROM 2 TO 2
OFFSET CHANGED FROM 2 TO 1
OFFSET CHANGED FROM 1 TO 2
OFFSET CHANGED FROM 2 TO 3
OFFSET CHANGED FROM 3 TO 2
OFFSET CHANGED FROM 2 TO 2
OFFSET CHANGED FROM 2 TO 2
OFFSET CHANGED FROM 2 TO 2
OFFSET CHANGED FROM 2 TO 3
OFFSET CHANGED FROM 3 TO 3
OFFSET CHANGED FROM 3 TO 2
OFFSET CHANGED FROM 2 TO 2
OFFSET CHANGED FROM 2 TO 2
OFFSET CHANGED FROM 2 TO 2
OFFSET CHANGED FROM 2 TO 1
OFFSET CHANGED FROM 1 TO 1
OFFSET CHANGED FROM 1 TO 1
OFFSET CHANGED FROM 1 TO 1
OFFSET CHANGED FROM 1 TO 1
OFFSET CHANGED FROM 1 TO 1
OFFSET CHANGED FROM 1 TO 2
OFFSET CHANGED FROM 2 TO 1
OFFSET CHANGED FROM 1 TO 1
OFFSET CHANGED FROM 1 TO 1
OFFSET CHANGED FROM 1 TO 4
OFFSET CHANGED FROM 4 TO 4
OFFSET CHANGED FROM 4 TO 4
OFFSET CHANGED FROM 4 TO 4
PREFETCHING INTO L2 w/ PREFETCH SCORE 31 (MSHR OCC = 28)
PREFETCHING INTO L2 w/ PREFETCH SCORE 31 (MSHR OCC = 30)
PREFETCHING INTO L2 w/ PREFETCH SCORE 31 (MSHR OCC = 31)
PREFETCHING INTO L2 w/ PREFETCH SCORE 31 (MSHR OCC = 28)
PREFETCHING INTO L2 w/ PREFETCH SCORE 31 (MSHR OCC = 28)
PREFETCHING INTO L2 w/ PREFETCH SCORE 31 (MSHR OCC = 31)
PREFETCHING INTO L2 w/ PREFETCH SCORE 31 (MSHR OCC = 32)
PREFETCHING INTO L2 w/ PREFETCH SCORE 31 (MSHR OCC = 32)
PREFETCHING INTO L2 w/ PREFETCH SCORE 31 (MSHR OCC = 28)
OFFSET CHANGED FROM 4 TO 4
OFFSET CHANGED FROM 4 TO 3
OFFSET CHANGED FROM 3 TO 2
OFFSET CHANGED FROM 2 TO 2
OFFSET CHANGED FROM 2 TO 3
OFFSET CHANGED FROM 3 TO 1
OFFSET CHANGED FROM 1 TO 2
OFFSET CHANGED FROM 2 TO 2
OFFSET CHANGED FROM 2 TO 2
OFFSET CHANGED FROM 2 TO 2
OFFSET CHANGED FROM 2 TO 2
OFFSET CHANGED FROM 2 TO 2
OFFSET CHANGED FROM 2 TO 2
OFFSET CHANGED FROM 2 TO 2
OFFSET CHANGED FROM 2 TO 2
OFFSET CHANGED FROM 2 TO 2
OFFSET CHANGED FROM 2 TO 1
OFFSET CHANGED FROM 1 TO 1
Heartbeat CPU 0 instructions: 200000000 cycles: 155345091 heartbeat IPC: 1.12636 cumulative IPC: 1.0857 (Simulation time: 0 hr 6 min 14 sec) 
OFFSET CHANGED FROM 1 TO 1
OFFSET CHANGED FROM 1 TO 1
OFFSET CHANGED FROM 1 TO 1
OFFSET CHANGED FROM 1 TO 2
OFFSET CHANGED FROM 2 TO 1
OFFSET CHANGED FROM 1 TO 1
OFFSET CHANGED FROM 1 TO 2
OFFSET CHANGED FROM 2 TO 1
OFFSET CHANGED FROM 1 TO 4
OFFSET CHANGED FROM 4 TO 4
OFFSET CHANGED FROM 4 TO 4
PREFETCHING INTO L2 w/ PREFETCH SCORE 31 (MSHR OCC = 29)
PREFETCHING INTO L2 w/ PREFETCH SCORE 31 (MSHR OCC = 31)
PREFETCHING INTO L2 w/ PREFETCH SCORE 31 (MSHR OCC = 29)
PREFETCHING INTO L2 w/ PREFETCH SCORE 31 (MSHR OCC = 28)
PREFETCHING INTO L2 w/ PREFETCH SCORE 31 (MSHR OCC = 28)
PREFETCHING INTO L2 w/ PREFETCH SCORE 31 (MSHR OCC = 29)
OFFSET CHANGED FROM 4 TO 4
OFFSET CHANGED FROM 4 TO 2
OFFSET CHANGED FROM 2 TO 2
OFFSET CHANGED FROM 2 TO 2
OFFSET CHANGED FROM 2 TO 1
OFFSET CHANGED FROM 1 TO 2
OFFSET CHANGED FROM 2 TO 2
OFFSET CHANGED FROM 2 TO 2
OFFSET CHANGED FROM 2 TO 3
OFFSET CHANGED FROM 3 TO 2
OFFSET CHANGED FROM 2 TO 2
OFFSET CHANGED FROM 2 TO 2
OFFSET CHANGED FROM 2 TO 2
OFFSET CHANGED FROM 2 TO 2
OFFSET CHANGED FROM 2 TO 2
OFFSET CHANGED FROM 2 TO 3
OFFSET CHANGED FROM 3 TO 2
OFFSET CHANGED FROM 2 TO 2
OFFSET CHANGED FROM 2 TO 1
OFFSET CHANGED FROM 1 TO 1
OFFSET CHANGED FROM 1 TO 1
OFFSET CHANGED FROM 1 TO 3
OFFSET CHANGED FROM 3 TO 3
OFFSET CHANGED FROM 3 TO 2
OFFSET CHANGED FROM 2 TO 3
OFFSET CHANGED FROM 3 TO 4
OFFSET CHANGED FROM 4 TO 4
OFFSET CHANGED FROM 4 TO 4
OFFSET CHANGED FROM 4 TO 4
OFFSET CHANGED FROM 4 TO 4
OFFSET CHANGED FROM 4 TO 2
OFFSET CHANGED FROM 2 TO 2
OFFSET CHANGED FROM 2 TO 3
OFFSET CHANGED FROM 3 TO 2
OFFSET CHANGED FROM 2 TO 3
OFFSET CHANGED FROM 3 TO 2
OFFSET CHANGED FROM 2 TO 2
OFFSET CHANGED FROM 2 TO 2
OFFSET CHANGED FROM 2 TO 2
OFFSET CHANGED FROM 2 TO 2
OFFSET CHANGED FROM 2 TO 2
OFFSET CHANGED FROM 2 TO 2
OFFSET CHANGED FROM 2 TO 2
OFFSET CHANGED FROM 2 TO 4
OFFSET CHANGED FROM 4 TO 2
OFFSET CHANGED FROM 2 TO 2
OFFSET CHANGED FROM 2 TO 1
OFFSET CHANGED FROM 1 TO 2
OFFSET CHANGED FROM 2 TO 2
OFFSET CHANGED FROM 2 TO 2
OFFSET CHANGED FROM 2 TO 2
OFFSET CHANGED FROM 2 TO 1
Heartbeat CPU 0 instructions: 210000000 cycles: 164385053 heartbeat IPC: 1.1062 cumulative IPC: 1.08696 (Simulation time: 0 hr 6 min 32 sec) 
OFFSET CHANGED FROM 1 TO 1
OFFSET CHANGED FROM 1 TO 2
OFFSET CHANGED FROM 2 TO 3
OFFSET CHANGED FROM 3 TO 4
OFFSET CHANGED FROM 4 TO 4
OFFSET CHANGED FROM 4 TO 4
PREFETCHING INTO L2 w/ PREFETCH SCORE 31 (MSHR OCC = 28)
PREFETCHING INTO L2 w/ PREFETCH SCORE 31 (MSHR OCC = 28)
PREFETCHING INTO L2 w/ PREFETCH SCORE 31 (MSHR OCC = 29)
PREFETCHING INTO L2 w/ PREFETCH SCORE 31 (MSHR OCC = 30)
PREFETCHING INTO L2 w/ PREFETCH SCORE 31 (MSHR OCC = 32)
PREFETCHING INTO L2 w/ PREFETCH SCORE 31 (MSHR OCC = 32)
PREFETCHING INTO L2 w/ PREFETCH SCORE 31 (MSHR OCC = 32)
PREFETCHING INTO L2 w/ PREFETCH SCORE 31 (MSHR OCC = 28)
PREFETCHING INTO L2 w/ PREFETCH SCORE 31 (MSHR OCC = 30)
PREFETCHING INTO L2 w/ PREFETCH SCORE 31 (MSHR OCC = 30)
PREFETCHING INTO L2 w/ PREFETCH SCORE 31 (MSHR OCC = 28)
PREFETCHING INTO L2 w/ PREFETCH SCORE 31 (MSHR OCC = 29)
PREFETCHING INTO L2 w/ PREFETCH SCORE 31 (MSHR OCC = 30)
PREFETCHING INTO L2 w/ PREFETCH SCORE 31 (MSHR OCC = 31)
PREFETCHING INTO L2 w/ PREFETCH SCORE 31 (MSHR OCC = 28)
PREFETCHING INTO L2 w/ PREFETCH SCORE 31 (MSHR OCC = 28)
PREFETCHING INTO L2 w/ PREFETCH SCORE 31 (MSHR OCC = 28)
OFFSET CHANGED FROM 4 TO 4
OFFSET CHANGED FROM 4 TO 4
OFFSET CHANGED FROM 4 TO 2
OFFSET CHANGED FROM 2 TO 2
OFFSET CHANGED FROM 2 TO 3
OFFSET CHANGED FROM 3 TO 2
OFFSET CHANGED FROM 2 TO 3
OFFSET CHANGED FROM 3 TO 1
OFFSET CHANGED FROM 1 TO 2
OFFSET CHANGED FROM 2 TO 2
OFFSET CHANGED FROM 2 TO 2
OFFSET CHANGED FROM 2 TO 1
OFFSET CHANGED FROM 1 TO 4
OFFSET CHANGED FROM 4 TO 1
OFFSET CHANGED FROM 1 TO 2
OFFSET CHANGED FROM 2 TO 2
OFFSET CHANGED FROM 2 TO 1
OFFSET CHANGED FROM 1 TO 1
OFFSET CHANGED FROM 1 TO 1
OFFSET CHANGED FROM 1 TO 1
OFFSET CHANGED FROM 1 TO 1
OFFSET CHANGED FROM 1 TO 3
OFFSET CHANGED FROM 3 TO 1
OFFSET CHANGED FROM 1 TO 1
OFFSET CHANGED FROM 1 TO 1
OFFSET CHANGED FROM 1 TO 3
OFFSET CHANGED FROM 3 TO 4
OFFSET CHANGED FROM 4 TO 3
OFFSET CHANGED FROM 3 TO 3
OFFSET CHANGED FROM 3 TO 4
OFFSET CHANGED FROM 4 TO 9
OFFSET CHANGED FROM 9 TO 3
OFFSET CHANGED FROM 3 TO 3
OFFSET CHANGED FROM 3 TO 2
OFFSET CHANGED FROM 2 TO 4
OFFSET CHANGED FROM 4 TO 4
OFFSET CHANGED FROM 4 TO 3
OFFSET CHANGED FROM 3 TO 2
OFFSET CHANGED FROM 2 TO 2
OFFSET CHANGED FROM 2 TO 2
OFFSET CHANGED FROM 2 TO 3
OFFSET CHANGED FROM 3 TO 3
OFFSET CHANGED FROM 3 TO 2
OFFSET CHANGED FROM 2 TO 3
OFFSET CHANGED FROM 3 TO 2
OFFSET CHANGED FROM 2 TO 1
OFFSET CHANGED FROM 1 TO 2
OFFSET CHANGED FROM 2 TO 2
OFFSET CHANGED FROM 2 TO 3
OFFSET CHANGED FROM 3 TO 1
OFFSET CHANGED FROM 1 TO 1
Heartbeat CPU 0 instructions: 220000000 cycles: 173216322 heartbeat IPC: 1.13234 cumulative IPC: 1.08953 (Simulation time: 0 hr 6 min 49 sec) 
OFFSET CHANGED FROM 1 TO 1
OFFSET CHANGED FROM 1 TO 1
OFFSET CHANGED FROM 1 TO 4
OFFSET CHANGED FROM 4 TO 5
OFFSET CHANGED FROM 5 TO 4
OFFSET CHANGED FROM 4 TO 4
PREFETCHING INTO L2 w/ PREFETCH SCORE 31 (MSHR OCC = 29)
PREFETCHING INTO L2 w/ PREFETCH SCORE 31 (MSHR OCC = 30)
PREFETCHING INTO L2 w/ PREFETCH SCORE 31 (MSHR OCC = 32)
PREFETCHING INTO L2 w/ PREFETCH SCORE 31 (MSHR OCC = 32)
PREFETCHING INTO L2 w/ PREFETCH SCORE 31 (MSHR OCC = 32)
PREFETCHING INTO L2 w/ PREFETCH SCORE 31 (MSHR OCC = 29)
OFFSET CHANGED FROM 4 TO 4
OFFSET CHANGED FROM 4 TO 2
OFFSET CHANGED FROM 2 TO 2
OFFSET CHANGED FROM 2 TO 2
OFFSET CHANGED FROM 2 TO 4
OFFSET CHANGED FROM 4 TO 3
OFFSET CHANGED FROM 3 TO 3
OFFSET CHANGED FROM 3 TO 2
OFFSET CHANGED FROM 2 TO 2
OFFSET CHANGED FROM 2 TO 2
OFFSET CHANGED FROM 2 TO 2
OFFSET CHANGED FROM 2 TO 2
OFFSET CHANGED FROM 2 TO 2
OFFSET CHANGED FROM 2 TO 2
OFFSET CHANGED FROM 2 TO 3
OFFSET CHANGED FROM 3 TO 3
OFFSET CHANGED FROM 3 TO 1
OFFSET CHANGED FROM 1 TO 1
OFFSET CHANGED FROM 1 TO 1
OFFSET CHANGED FROM 1 TO 1
OFFSET CHANGED FROM 1 TO 1
OFFSET CHANGED FROM 1 TO 2
OFFSET CHANGED FROM 2 TO 2
OFFSET CHANGED FROM 2 TO 1
OFFSET CHANGED FROM 1 TO 1
OFFSET CHANGED FROM 1 TO 1
OFFSET CHANGED FROM 1 TO 1
OFFSET CHANGED FROM 1 TO 4
PREFETCHING INTO L2 w/ PREFETCH SCORE 31 (MSHR OCC = 32)
PREFETCHING INTO L2 w/ PREFETCH SCORE 31 (MSHR OCC = 32)
PREFETCHING INTO L2 w/ PREFETCH SCORE 31 (MSHR OCC = 30)
PREFETCHING INTO L2 w/ PREFETCH SCORE 31 (MSHR OCC = 30)
PREFETCHING INTO L2 w/ PREFETCH SCORE 31 (MSHR OCC = 30)
PREFETCHING INTO L2 w/ PREFETCH SCORE 31 (MSHR OCC = 31)
PREFETCHING INTO L2 w/ PREFETCH SCORE 31 (MSHR OCC = 29)
PREFETCHING INTO L2 w/ PREFETCH SCORE 31 (MSHR OCC = 29)
PREFETCHING INTO L2 w/ PREFETCH SCORE 31 (MSHR OCC = 30)
PREFETCHING INTO L2 w/ PREFETCH SCORE 31 (MSHR OCC = 29)
PREFETCHING INTO L2 w/ PREFETCH SCORE 31 (MSHR OCC = 32)
PREFETCHING INTO L2 w/ PREFETCH SCORE 31 (MSHR OCC = 31)
PREFETCHING INTO L2 w/ PREFETCH SCORE 31 (MSHR OCC = 28)
PREFETCHING INTO L2 w/ PREFETCH SCORE 31 (MSHR OCC = 29)
PREFETCHING INTO L2 w/ PREFETCH SCORE 31 (MSHR OCC = 29)
PREFETCHING INTO L2 w/ PREFETCH SCORE 31 (MSHR OCC = 30)
PREFETCHING INTO L2 w/ PREFETCH SCORE 31 (MSHR OCC = 31)
PREFETCHING INTO L2 w/ PREFETCH SCORE 31 (MSHR OCC = 28)
PREFETCHING INTO L2 w/ PREFETCH SCORE 31 (MSHR OCC = 28)
PREFETCHING INTO L2 w/ PREFETCH SCORE 31 (MSHR OCC = 32)
PREFETCHING INTO L2 w/ PREFETCH SCORE 31 (MSHR OCC = 32)
PREFETCHING INTO L2 w/ PREFETCH SCORE 31 (MSHR OCC = 32)
PREFETCHING INTO L2 w/ PREFETCH SCORE 31 (MSHR OCC = 28)
PREFETCHING INTO L2 w/ PREFETCH SCORE 31 (MSHR OCC = 29)
PREFETCHING INTO L2 w/ PREFETCH SCORE 31 (MSHR OCC = 29)
PREFETCHING INTO L2 w/ PREFETCH SCORE 31 (MSHR OCC = 28)
PREFETCHING INTO L2 w/ PREFETCH SCORE 31 (MSHR OCC = 29)
PREFETCHING INTO L2 w/ PREFETCH SCORE 31 (MSHR OCC = 30)
PREFETCHING INTO L2 w/ PREFETCH SCORE 31 (MSHR OCC = 30)
PREFETCHING INTO L2 w/ PREFETCH SCORE 31 (MSHR OCC = 30)
PREFETCHING INTO L2 w/ PREFETCH SCORE 31 (MSHR OCC = 28)
PREFETCHING INTO L2 w/ PREFETCH SCORE 31 (MSHR OCC = 32)
PREFETCHING INTO L2 w/ PREFETCH SCORE 31 (MSHR OCC = 32)
PREFETCHING INTO L2 w/ PREFETCH SCORE 31 (MSHR OCC = 30)
PREFETCHING INTO L2 w/ PREFETCH SCORE 31 (MSHR OCC = 28)
OFFSET CHANGED FROM 4 TO 3
OFFSET CHANGED FROM 3 TO 4
OFFSET CHANGED FROM 4 TO 3
OFFSET CHANGED FROM 3 TO 3
OFFSET CHANGED FROM 3 TO 2
OFFSET CHANGED FROM 2 TO 1
OFFSET CHANGED FROM 1 TO 3
OFFSET CHANGED FROM 3 TO 2
OFFSET CHANGED FROM 2 TO 4
OFFSET CHANGED FROM 4 TO 2
OFFSET CHANGED FROM 2 TO 2
OFFSET CHANGED FROM 2 TO 2
OFFSET CHANGED FROM 2 TO 2
OFFSET CHANGED FROM 2 TO 2
OFFSET CHANGED FROM 2 TO 2
OFFSET CHANGED FROM 2 TO 2
OFFSET CHANGED FROM 2 TO 1
OFFSET CHANGED FROM 1 TO 1
OFFSET CHANGED FROM 1 TO 1
OFFSET CHANGED FROM 1 TO 1
OFFSET CHANGED FROM 1 TO 2
OFFSET CHANGED FROM 2 TO 2
OFFSET CHANGED FROM 2 TO 1
OFFSET CHANGED FROM 1 TO 1
OFFSET CHANGED FROM 1 TO 2
OFFSET CHANGED FROM 2 TO 3
OFFSET CHANGED FROM 3 TO 4
OFFSET CHANGED FROM 4 TO 4
OFFSET CHANGED FROM 4 TO 4
PREFETCHING INTO L2 w/ PREFETCH SCORE 31 (MSHR OCC = 32)
PREFETCHING INTO L2 w/ PREFETCH SCORE 31 (MSHR OCC = 32)
PREFETCHING INTO L2 w/ PREFETCH SCORE 31 (MSHR OCC = 28)
PREFETCHING INTO L2 w/ PREFETCH SCORE 31 (MSHR OCC = 28)
PREFETCHING INTO L2 w/ PREFETCH SCORE 31 (MSHR OCC = 29)
PREFETCHING INTO L2 w/ PREFETCH SCORE 31 (MSHR OCC = 29)
PREFETCHING INTO L2 w/ PREFETCH SCORE 31 (MSHR OCC = 29)
PREFETCHING INTO L2 w/ PREFETCH SCORE 31 (MSHR OCC = 30)
PREFETCHING INTO L2 w/ PREFETCH SCORE 31 (MSHR OCC = 28)
PREFETCHING INTO L2 w/ PREFETCH SCORE 31 (MSHR OCC = 28)
PREFETCHING INTO L2 w/ PREFETCH SCORE 31 (MSHR OCC = 28)
PREFETCHING INTO L2 w/ PREFETCH SCORE 31 (MSHR OCC = 28)
PREFETCHING INTO L2 w/ PREFETCH SCORE 31 (MSHR OCC = 28)
Heartbeat CPU 0 instructions: 230000002 cycles: 182134770 heartbeat IPC: 1.12127 cumulative IPC: 1.09124 (Simulation time: 0 hr 7 min 8 sec) 
OFFSET CHANGED FROM 4 TO 2
OFFSET CHANGED FROM 2 TO 2
OFFSET CHANGED FROM 2 TO 2
OFFSET CHANGED FROM 2 TO 3
OFFSET CHANGED FROM 3 TO 4
OFFSET CHANGED FROM 4 TO 3
OFFSET CHANGED FROM 3 TO 2
OFFSET CHANGED FROM 2 TO 3
OFFSET CHANGED FROM 3 TO 2
OFFSET CHANGED FROM 2 TO 2
OFFSET CHANGED FROM 2 TO 2
OFFSET CHANGED FROM 2 TO 2
OFFSET CHANGED FROM 2 TO 4
OFFSET CHANGED FROM 4 TO 2
OFFSET CHANGED FROM 2 TO 2
OFFSET CHANGED FROM 2 TO 2
OFFSET CHANGED FROM 2 TO 2
OFFSET CHANGED FROM 2 TO 1
OFFSET CHANGED FROM 1 TO 2
OFFSET CHANGED FROM 2 TO 2
OFFSET CHANGED FROM 2 TO 2
OFFSET CHANGED FROM 2 TO 3
OFFSET CHANGED FROM 3 TO 2
OFFSET CHANGED FROM 2 TO 1
OFFSET CHANGED FROM 1 TO 2
OFFSET CHANGED FROM 2 TO 4
OFFSET CHANGED FROM 4 TO 4
OFFSET CHANGED FROM 4 TO 4
PREFETCHING INTO L2 w/ PREFETCH SCORE 31 (MSHR OCC = 30)
PREFETCHING INTO L2 w/ PREFETCH SCORE 31 (MSHR OCC = 29)
PREFETCHING INTO L2 w/ PREFETCH SCORE 31 (MSHR OCC = 30)
PREFETCHING INTO L2 w/ PREFETCH SCORE 31 (MSHR OCC = 32)
PREFETCHING INTO L2 w/ PREFETCH SCORE 31 (MSHR OCC = 32)
PREFETCHING INTO L2 w/ PREFETCH SCORE 31 (MSHR OCC = 28)
PREFETCHING INTO L2 w/ PREFETCH SCORE 31 (MSHR OCC = 29)
PREFETCHING INTO L2 w/ PREFETCH SCORE 31 (MSHR OCC = 32)
PREFETCHING INTO L2 w/ PREFETCH SCORE 31 (MSHR OCC = 32)
PREFETCHING INTO L2 w/ PREFETCH SCORE 31 (MSHR OCC = 32)
PREFETCHING INTO L2 w/ PREFETCH SCORE 31 (MSHR OCC = 28)
PREFETCHING INTO L2 w/ PREFETCH SCORE 31 (MSHR OCC = 29)
PREFETCHING INTO L2 w/ PREFETCH SCORE 31 (MSHR OCC = 30)
PREFETCHING INTO L2 w/ PREFETCH SCORE 31 (MSHR OCC = 29)
PREFETCHING INTO L2 w/ PREFETCH SCORE 31 (MSHR OCC = 29)
PREFETCHING INTO L2 w/ PREFETCH SCORE 31 (MSHR OCC = 29)
PREFETCHING INTO L2 w/ PREFETCH SCORE 31 (MSHR OCC = 29)
OFFSET CHANGED FROM 4 TO 6
OFFSET CHANGED FROM 6 TO 6
OFFSET CHANGED FROM 6 TO 2
OFFSET CHANGED FROM 2 TO 2
OFFSET CHANGED FROM 2 TO 2
OFFSET CHANGED FROM 2 TO 3
OFFSET CHANGED FROM 3 TO 3
OFFSET CHANGED FROM 3 TO 2
OFFSET CHANGED FROM 2 TO 3
OFFSET CHANGED FROM 3 TO 3
OFFSET CHANGED FROM 3 TO 2
OFFSET CHANGED FROM 2 TO 3
OFFSET CHANGED FROM 3 TO 2
OFFSET CHANGED FROM 2 TO 2
OFFSET CHANGED FROM 2 TO 2
OFFSET CHANGED FROM 2 TO 2
OFFSET CHANGED FROM 2 TO 2
OFFSET CHANGED FROM 2 TO 1
OFFSET CHANGED FROM 1 TO 2
OFFSET CHANGED FROM 2 TO 1
OFFSET CHANGED FROM 1 TO 1
OFFSET CHANGED FROM 1 TO 1
OFFSET CHANGED FROM 1 TO 1
OFFSET CHANGED FROM 1 TO 1
OFFSET CHANGED FROM 1 TO 2
OFFSET CHANGED FROM 2 TO 3
OFFSET CHANGED FROM 3 TO 1
OFFSET CHANGED FROM 1 TO 4
OFFSET CHANGED FROM 4 TO 4
PREFETCHING INTO L2 w/ PREFETCH SCORE 31 (MSHR OCC = 28)
PREFETCHING INTO L2 w/ PREFETCH SCORE 31 (MSHR OCC = 28)
OFFSET CHANGED FROM 4 TO 3
OFFSET CHANGED FROM 3 TO 1
OFFSET CHANGED FROM 1 TO 2
OFFSET CHANGED FROM 2 TO 2
OFFSET CHANGED FROM 2 TO 2
OFFSET CHANGED FROM 2 TO 2
OFFSET CHANGED FROM 2 TO 3
Heartbeat CPU 0 instructions: 240000000 cycles: 190730885 heartbeat IPC: 1.16332 cumulative IPC: 1.09481 (Simulation time: 0 hr 7 min 25 sec) 
OFFSET CHANGED FROM 3 TO 2
OFFSET CHANGED FROM 2 TO 2
OFFSET CHANGED FROM 2 TO 2
OFFSET CHANGED FROM 2 TO 2
OFFSET CHANGED FROM 2 TO 2
OFFSET CHANGED FROM 2 TO 3
OFFSET CHANGED FROM 3 TO 2
OFFSET CHANGED FROM 2 TO 2
OFFSET CHANGED FROM 2 TO 2
OFFSET CHANGED FROM 2 TO 1
OFFSET CHANGED FROM 1 TO 2
OFFSET CHANGED FROM 2 TO 2
OFFSET CHANGED FROM 2 TO 1
OFFSET CHANGED FROM 1 TO 1
OFFSET CHANGED FROM 1 TO 1
OFFSET CHANGED FROM 1 TO 1
OFFSET CHANGED FROM 1 TO 3
OFFSET CHANGED FROM 3 TO 1
OFFSET CHANGED FROM 1 TO 2
OFFSET CHANGED FROM 2 TO 4
OFFSET CHANGED FROM 4 TO 5
OFFSET CHANGED FROM 5 TO 3
PREFETCHING INTO L2 w/ PREFETCH SCORE 31 (MSHR OCC = 31)
OFFSET CHANGED FROM 3 TO 1
OFFSET CHANGED FROM 1 TO 1
OFFSET CHANGED FROM 1 TO 3
OFFSET CHANGED FROM 3 TO 2
OFFSET CHANGED FROM 2 TO 4
OFFSET CHANGED FROM 4 TO 1
OFFSET CHANGED FROM 1 TO 1
OFFSET CHANGED FROM 1 TO 4
OFFSET CHANGED FROM 4 TO 3
OFFSET CHANGED FROM 3 TO 2
OFFSET CHANGED FROM 2 TO 2
OFFSET CHANGED FROM 2 TO 2
OFFSET CHANGED FROM 2 TO 3
OFFSET CHANGED FROM 3 TO 2
OFFSET CHANGED FROM 2 TO 2
OFFSET CHANGED FROM 2 TO 2
OFFSET CHANGED FROM 2 TO 3
OFFSET CHANGED FROM 3 TO 2
OFFSET CHANGED FROM 2 TO 4
OFFSET CHANGED FROM 4 TO 1
OFFSET CHANGED FROM 1 TO 1
OFFSET CHANGED FROM 1 TO 1
OFFSET CHANGED FROM 1 TO 1
OFFSET CHANGED FROM 1 TO 2
OFFSET CHANGED FROM 2 TO 2
OFFSET CHANGED FROM 2 TO 4
OFFSET CHANGED FROM 4 TO 3
OFFSET CHANGED FROM 3 TO 4
OFFSET CHANGED FROM 4 TO 4
OFFSET CHANGED FROM 4 TO 3
OFFSET CHANGED FROM 3 TO 2
OFFSET CHANGED FROM 2 TO 2
OFFSET CHANGED FROM 2 TO 2
OFFSET CHANGED FROM 2 TO 2
OFFSET CHANGED FROM 2 TO 2
OFFSET CHANGED FROM 2 TO 2
OFFSET CHANGED FROM 2 TO 2
OFFSET CHANGED FROM 2 TO 2
OFFSET CHANGED FROM 2 TO 2
OFFSET CHANGED FROM 2 TO 2
OFFSET CHANGED FROM 2 TO 2
OFFSET CHANGED FROM 2 TO 2
OFFSET CHANGED FROM 2 TO 2
Heartbeat CPU 0 instructions: 250000002 cycles: 199383549 heartbeat IPC: 1.15571 cumulative IPC: 1.09771 (Simulation time: 0 hr 7 min 43 sec) 
OFFSET CHANGED FROM 2 TO 3
OFFSET CHANGED FROM 3 TO 4
OFFSET CHANGED FROM 4 TO 2
OFFSET CHANGED FROM 2 TO 1
OFFSET CHANGED FROM 1 TO 2
OFFSET CHANGED FROM 2 TO 1
OFFSET CHANGED FROM 1 TO 1
OFFSET CHANGED FROM 1 TO 2
OFFSET CHANGED FROM 2 TO 3
OFFSET CHANGED FROM 3 TO 3
OFFSET CHANGED FROM 3 TO 1
OFFSET CHANGED FROM 1 TO 4
OFFSET CHANGED FROM 4 TO 4
OFFSET CHANGED FROM 4 TO 4
PREFETCHING INTO L2 w/ PREFETCH SCORE 31 (MSHR OCC = 28)
PREFETCHING INTO L2 w/ PREFETCH SCORE 31 (MSHR OCC = 29)
PREFETCHING INTO L2 w/ PREFETCH SCORE 31 (MSHR OCC = 29)
PREFETCHING INTO L2 w/ PREFETCH SCORE 31 (MSHR OCC = 30)
PREFETCHING INTO L2 w/ PREFETCH SCORE 31 (MSHR OCC = 28)
PREFETCHING INTO L2 w/ PREFETCH SCORE 31 (MSHR OCC = 28)
PREFETCHING INTO L2 w/ PREFETCH SCORE 31 (MSHR OCC = 28)
PREFETCHING INTO L2 w/ PREFETCH SCORE 31 (MSHR OCC = 28)
PREFETCHING INTO L2 w/ PREFETCH SCORE 31 (MSHR OCC = 30)
PREFETCHING INTO L2 w/ PREFETCH SCORE 31 (MSHR OCC = 30)
PREFETCHING INTO L2 w/ PREFETCH SCORE 31 (MSHR OCC = 31)
OFFSET CHANGED FROM 4 TO 4
OFFSET CHANGED FROM 4 TO 1
OFFSET CHANGED FROM 1 TO 2
OFFSET CHANGED FROM 2 TO 3
OFFSET CHANGED FROM 3 TO 2
OFFSET CHANGED FROM 2 TO 2
OFFSET CHANGED FROM 2 TO 3
OFFSET CHANGED FROM 3 TO 2
OFFSET CHANGED FROM 2 TO 2
OFFSET CHANGED FROM 2 TO 2
OFFSET CHANGED FROM 2 TO 3
OFFSET CHANGED FROM 3 TO 3
OFFSET CHANGED FROM 3 TO 2
OFFSET CHANGED FROM 2 TO 2
OFFSET CHANGED FROM 2 TO 2
OFFSET CHANGED FROM 2 TO 2
OFFSET CHANGED FROM 2 TO 2
OFFSET CHANGED FROM 2 TO 2
OFFSET CHANGED FROM 2 TO 1
OFFSET CHANGED FROM 1 TO 1
OFFSET CHANGED FROM 1 TO 2
OFFSET CHANGED FROM 2 TO 2
OFFSET CHANGED FROM 2 TO 3
OFFSET CHANGED FROM 3 TO 2
OFFSET CHANGED FROM 2 TO 1
OFFSET CHANGED FROM 1 TO 1
OFFSET CHANGED FROM 1 TO 4
OFFSET CHANGED FROM 4 TO 4
OFFSET CHANGED FROM 4 TO 4
PREFETCHING INTO L2 w/ PREFETCH SCORE 31 (MSHR OCC = 28)
PREFETCHING INTO L2 w/ PREFETCH SCORE 31 (MSHR OCC = 28)
PREFETCHING INTO L2 w/ PREFETCH SCORE 31 (MSHR OCC = 29)
PREFETCHING INTO L2 w/ PREFETCH SCORE 31 (MSHR OCC = 29)
PREFETCHING INTO L2 w/ PREFETCH SCORE 31 (MSHR OCC = 28)
PREFETCHING INTO L2 w/ PREFETCH SCORE 31 (MSHR OCC = 28)
PREFETCHING INTO L2 w/ PREFETCH SCORE 31 (MSHR OCC = 29)
PREFETCHING INTO L2 w/ PREFETCH SCORE 31 (MSHR OCC = 29)
OFFSET CHANGED FROM 4 TO 5
OFFSET CHANGED FROM 5 TO 5
OFFSET CHANGED FROM 5 TO 3
OFFSET CHANGED FROM 3 TO 2
OFFSET CHANGED FROM 2 TO 1
OFFSET CHANGED FROM 1 TO 2
OFFSET CHANGED FROM 2 TO 2
OFFSET CHANGED FROM 2 TO 2
OFFSET CHANGED FROM 2 TO 2
OFFSET CHANGED FROM 2 TO 2
OFFSET CHANGED FROM 2 TO 2
OFFSET CHANGED FROM 2 TO 2
OFFSET CHANGED FROM 2 TO 2
OFFSET CHANGED FROM 2 TO 3
OFFSET CHANGED FROM 3 TO 2
OFFSET CHANGED FROM 2 TO 2
OFFSET CHANGED FROM 2 TO 1
OFFSET CHANGED FROM 1 TO 1
OFFSET CHANGED FROM 1 TO 2
OFFSET CHANGED FROM 2 TO 2
Heartbeat CPU 0 instructions: 260000001 cycles: 208462588 heartbeat IPC: 1.10144 cumulative IPC: 1.09788 (Simulation time: 0 hr 8 min 2 sec) 
OFFSET CHANGED FROM 2 TO 2
OFFSET CHANGED FROM 2 TO 2
OFFSET CHANGED FROM 2 TO 1
OFFSET CHANGED FROM 1 TO 3
OFFSET CHANGED FROM 3 TO 1
OFFSET CHANGED FROM 1 TO 1
OFFSET CHANGED FROM 1 TO 4
OFFSET CHANGED FROM 4 TO 4
PREFETCHING INTO L2 w/ PREFETCH SCORE 31 (MSHR OCC = 28)
PREFETCHING INTO L2 w/ PREFETCH SCORE 31 (MSHR OCC = 32)
PREFETCHING INTO L2 w/ PREFETCH SCORE 31 (MSHR OCC = 28)
PREFETCHING INTO L2 w/ PREFETCH SCORE 31 (MSHR OCC = 32)
PREFETCHING INTO L2 w/ PREFETCH SCORE 31 (MSHR OCC = 31)
PREFETCHING INTO L2 w/ PREFETCH SCORE 31 (MSHR OCC = 32)
PREFETCHING INTO L2 w/ PREFETCH SCORE 31 (MSHR OCC = 32)
PREFETCHING INTO L2 w/ PREFETCH SCORE 31 (MSHR OCC = 32)
PREFETCHING INTO L2 w/ PREFETCH SCORE 31 (MSHR OCC = 32)
PREFETCHING INTO L2 w/ PREFETCH SCORE 31 (MSHR OCC = 32)
PREFETCHING INTO L2 w/ PREFETCH SCORE 31 (MSHR OCC = 31)
PREFETCHING INTO L2 w/ PREFETCH SCORE 31 (MSHR OCC = 31)
PREFETCHING INTO L2 w/ PREFETCH SCORE 31 (MSHR OCC = 32)
PREFETCHING INTO L2 w/ PREFETCH SCORE 31 (MSHR OCC = 28)
PREFETCHING INTO L2 w/ PREFETCH SCORE 31 (MSHR OCC = 29)
PREFETCHING INTO L2 w/ PREFETCH SCORE 31 (MSHR OCC = 30)
PREFETCHING INTO L2 w/ PREFETCH SCORE 31 (MSHR OCC = 31)
OFFSET CHANGED FROM 4 TO 3
OFFSET CHANGED FROM 3 TO 4
OFFSET CHANGED FROM 4 TO 4
OFFSET CHANGED FROM 4 TO 2
OFFSET CHANGED FROM 2 TO 3
OFFSET CHANGED FROM 3 TO 1
OFFSET CHANGED FROM 1 TO 2
OFFSET CHANGED FROM 2 TO 2
OFFSET CHANGED FROM 2 TO 2
OFFSET CHANGED FROM 2 TO 2
OFFSET CHANGED FROM 2 TO 2
OFFSET CHANGED FROM 2 TO 2
OFFSET CHANGED FROM 2 TO 2
OFFSET CHANGED FROM 2 TO 2
OFFSET CHANGED FROM 2 TO 2
OFFSET CHANGED FROM 2 TO 2
OFFSET CHANGED FROM 2 TO 2
OFFSET CHANGED FROM 2 TO 3
OFFSET CHANGED FROM 3 TO 1
OFFSET CHANGED FROM 1 TO 1
OFFSET CHANGED FROM 1 TO 1
OFFSET CHANGED FROM 1 TO 2
OFFSET CHANGED FROM 2 TO 2
OFFSET CHANGED FROM 2 TO 2
OFFSET CHANGED FROM 2 TO 2
OFFSET CHANGED FROM 2 TO 1
OFFSET CHANGED FROM 1 TO 4
OFFSET CHANGED FROM 4 TO 4
OFFSET CHANGED FROM 4 TO 4
PREFETCHING INTO L2 w/ PREFETCH SCORE 31 (MSHR OCC = 29)
PREFETCHING INTO L2 w/ PREFETCH SCORE 31 (MSHR OCC = 30)
PREFETCHING INTO L2 w/ PREFETCH SCORE 31 (MSHR OCC = 32)
PREFETCHING INTO L2 w/ PREFETCH SCORE 31 (MSHR OCC = 32)
PREFETCHING INTO L2 w/ PREFETCH SCORE 31 (MSHR OCC = 32)
PREFETCHING INTO L2 w/ PREFETCH SCORE 31 (MSHR OCC = 32)
PREFETCHING INTO L2 w/ PREFETCH SCORE 31 (MSHR OCC = 31)
PREFETCHING INTO L2 w/ PREFETCH SCORE 31 (MSHR OCC = 31)
PREFETCHING INTO L2 w/ PREFETCH SCORE 31 (MSHR OCC = 31)
PREFETCHING INTO L2 w/ PREFETCH SCORE 31 (MSHR OCC = 31)
PREFETCHING INTO L2 w/ PREFETCH SCORE 31 (MSHR OCC = 32)
PREFETCHING INTO L2 w/ PREFETCH SCORE 31 (MSHR OCC = 31)
PREFETCHING INTO L2 w/ PREFETCH SCORE 31 (MSHR OCC = 30)
PREFETCHING INTO L2 w/ PREFETCH SCORE 31 (MSHR OCC = 30)
PREFETCHING INTO L2 w/ PREFETCH SCORE 31 (MSHR OCC = 28)
PREFETCHING INTO L2 w/ PREFETCH SCORE 31 (MSHR OCC = 29)
PREFETCHING INTO L2 w/ PREFETCH SCORE 31 (MSHR OCC = 28)
PREFETCHING INTO L2 w/ PREFETCH SCORE 31 (MSHR OCC = 28)
PREFETCHING INTO L2 w/ PREFETCH SCORE 31 (MSHR OCC = 28)
PREFETCHING INTO L2 w/ PREFETCH SCORE 31 (MSHR OCC = 30)
PREFETCHING INTO L2 w/ PREFETCH SCORE 31 (MSHR OCC = 31)
PREFETCHING INTO L2 w/ PREFETCH SCORE 31 (MSHR OCC = 31)
PREFETCHING INTO L2 w/ PREFETCH SCORE 31 (MSHR OCC = 31)
PREFETCHING INTO L2 w/ PREFETCH SCORE 31 (MSHR OCC = 28)
PREFETCHING INTO L2 w/ PREFETCH SCORE 31 (MSHR OCC = 29)
PREFETCHING INTO L2 w/ PREFETCH SCORE 31 (MSHR OCC = 29)
PREFETCHING INTO L2 w/ PREFETCH SCORE 31 (MSHR OCC = 29)
PREFETCHING INTO L2 w/ PREFETCH SCORE 31 (MSHR OCC = 30)
PREFETCHING INTO L2 w/ PREFETCH SCORE 31 (MSHR OCC = 31)
PREFETCHING INTO L2 w/ PREFETCH SCORE 31 (MSHR OCC = 32)
PREFETCHING INTO L2 w/ PREFETCH SCORE 31 (MSHR OCC = 32)
PREFETCHING INTO L2 w/ PREFETCH SCORE 31 (MSHR OCC = 32)
PREFETCHING INTO L2 w/ PREFETCH SCORE 31 (MSHR OCC = 28)
PREFETCHING INTO L2 w/ PREFETCH SCORE 31 (MSHR OCC = 28)
PREFETCHING INTO L2 w/ PREFETCH SCORE 31 (MSHR OCC = 29)
PREFETCHING INTO L2 w/ PREFETCH SCORE 31 (MSHR OCC = 30)
PREFETCHING INTO L2 w/ PREFETCH SCORE 31 (MSHR OCC = 32)
PREFETCHING INTO L2 w/ PREFETCH SCORE 31 (MSHR OCC = 28)
PREFETCHING INTO L2 w/ PREFETCH SCORE 31 (MSHR OCC = 29)
PREFETCHING INTO L2 w/ PREFETCH SCORE 31 (MSHR OCC = 30)
PREFETCHING INTO L2 w/ PREFETCH SCORE 31 (MSHR OCC = 30)
PREFETCHING INTO L2 w/ PREFETCH SCORE 31 (MSHR OCC = 30)
PREFETCHING INTO L2 w/ PREFETCH SCORE 31 (MSHR OCC = 30)
PREFETCHING INTO L2 w/ PREFETCH SCORE 31 (MSHR OCC = 30)
PREFETCHING INTO L2 w/ PREFETCH SCORE 31 (MSHR OCC = 28)
PREFETCHING INTO L2 w/ PREFETCH SCORE 31 (MSHR OCC = 30)
PREFETCHING INTO L2 w/ PREFETCH SCORE 31 (MSHR OCC = 28)
PREFETCHING INTO L2 w/ PREFETCH SCORE 31 (MSHR OCC = 29)
PREFETCHING INTO L2 w/ PREFETCH SCORE 31 (MSHR OCC = 28)
PREFETCHING INTO L2 w/ PREFETCH SCORE 31 (MSHR OCC = 29)
PREFETCHING INTO L2 w/ PREFETCH SCORE 31 (MSHR OCC = 32)
PREFETCHING INTO L2 w/ PREFETCH SCORE 31 (MSHR OCC = 28)
PREFETCHING INTO L2 w/ PREFETCH SCORE 31 (MSHR OCC = 28)
PREFETCHING INTO L2 w/ PREFETCH SCORE 31 (MSHR OCC = 29)
PREFETCHING INTO L2 w/ PREFETCH SCORE 31 (MSHR OCC = 29)
PREFETCHING INTO L2 w/ PREFETCH SCORE 31 (MSHR OCC = 29)
PREFETCHING INTO L2 w/ PREFETCH SCORE 31 (MSHR OCC = 28)
PREFETCHING INTO L2 w/ PREFETCH SCORE 31 (MSHR OCC = 29)
PREFETCHING INTO L2 w/ PREFETCH SCORE 31 (MSHR OCC = 30)
PREFETCHING INTO L2 w/ PREFETCH SCORE 31 (MSHR OCC = 31)
PREFETCHING INTO L2 w/ PREFETCH SCORE 31 (MSHR OCC = 32)
PREFETCHING INTO L2 w/ PREFETCH SCORE 31 (MSHR OCC = 28)
PREFETCHING INTO L2 w/ PREFETCH SCORE 31 (MSHR OCC = 32)
OFFSET CHANGED FROM 4 TO 3
OFFSET CHANGED FROM 3 TO 2
OFFSET CHANGED FROM 2 TO 2
OFFSET CHANGED FROM 2 TO 3
OFFSET CHANGED FROM 3 TO 2
OFFSET CHANGED FROM 2 TO 2
OFFSET CHANGED FROM 2 TO 2
OFFSET CHANGED FROM 2 TO 2
OFFSET CHANGED FROM 2 TO 4
OFFSET CHANGED FROM 4 TO 3
OFFSET CHANGED FROM 3 TO 3
OFFSET CHANGED FROM 3 TO 3
OFFSET CHANGED FROM 3 TO 2
OFFSET CHANGED FROM 2 TO 2
OFFSET CHANGED FROM 2 TO 2
OFFSET CHANGED FROM 2 TO 2
OFFSET CHANGED FROM 2 TO 1
OFFSET CHANGED FROM 1 TO 2
OFFSET CHANGED FROM 2 TO 2
OFFSET CHANGED FROM 2 TO 1
Heartbeat CPU 0 instructions: 270000000 cycles: 217378489 heartbeat IPC: 1.12159 cumulative IPC: 1.09894 (Simulation time: 0 hr 8 min 19 sec) 
OFFSET CHANGED FROM 1 TO 1
OFFSET CHANGED FROM 1 TO 4
OFFSET CHANGED FROM 4 TO 6
OFFSET CHANGED FROM 6 TO 3
PREFETCHING INTO L2 w/ PREFETCH SCORE 31 (MSHR OCC = 29)
PREFETCHING INTO L2 w/ PREFETCH SCORE 31 (MSHR OCC = 32)
PREFETCHING INTO L2 w/ PREFETCH SCORE 31 (MSHR OCC = 32)
PREFETCHING INTO L2 w/ PREFETCH SCORE 31 (MSHR OCC = 29)
PREFETCHING INTO L2 w/ PREFETCH SCORE 31 (MSHR OCC = 28)
PREFETCHING INTO L2 w/ PREFETCH SCORE 31 (MSHR OCC = 29)
PREFETCHING INTO L2 w/ PREFETCH SCORE 31 (MSHR OCC = 30)
PREFETCHING INTO L2 w/ PREFETCH SCORE 31 (MSHR OCC = 31)
PREFETCHING INTO L2 w/ PREFETCH SCORE 31 (MSHR OCC = 32)
PREFETCHING INTO L2 w/ PREFETCH SCORE 31 (MSHR OCC = 28)
PREFETCHING INTO L2 w/ PREFETCH SCORE 31 (MSHR OCC = 28)
PREFETCHING INTO L2 w/ PREFETCH SCORE 31 (MSHR OCC = 32)
PREFETCHING INTO L2 w/ PREFETCH SCORE 31 (MSHR OCC = 31)
PREFETCHING INTO L2 w/ PREFETCH SCORE 31 (MSHR OCC = 31)
PREFETCHING INTO L2 w/ PREFETCH SCORE 31 (MSHR OCC = 32)
PREFETCHING INTO L2 w/ PREFETCH SCORE 31 (MSHR OCC = 32)
PREFETCHING INTO L2 w/ PREFETCH SCORE 31 (MSHR OCC = 28)
PREFETCHING INTO L2 w/ PREFETCH SCORE 31 (MSHR OCC = 29)
PREFETCHING INTO L2 w/ PREFETCH SCORE 31 (MSHR OCC = 30)
PREFETCHING INTO L2 w/ PREFETCH SCORE 31 (MSHR OCC = 31)
PREFETCHING INTO L2 w/ PREFETCH SCORE 31 (MSHR OCC = 32)
PREFETCHING INTO L2 w/ PREFETCH SCORE 31 (MSHR OCC = 28)
PREFETCHING INTO L2 w/ PREFETCH SCORE 31 (MSHR OCC = 29)
PREFETCHING INTO L2 w/ PREFETCH SCORE 31 (MSHR OCC = 30)
PREFETCHING INTO L2 w/ PREFETCH SCORE 31 (MSHR OCC = 30)
PREFETCHING INTO L2 w/ PREFETCH SCORE 31 (MSHR OCC = 31)
PREFETCHING INTO L2 w/ PREFETCH SCORE 31 (MSHR OCC = 30)
OFFSET CHANGED FROM 3 TO 4
OFFSET CHANGED FROM 4 TO 5
OFFSET CHANGED FROM 5 TO 3
OFFSET CHANGED FROM 3 TO 2
OFFSET CHANGED FROM 2 TO 3
OFFSET CHANGED FROM 3 TO 2
OFFSET CHANGED FROM 2 TO 2
OFFSET CHANGED FROM 2 TO 2
OFFSET CHANGED FROM 2 TO 4
OFFSET CHANGED FROM 4 TO 2
OFFSET CHANGED FROM 2 TO 3
OFFSET CHANGED FROM 3 TO 2
OFFSET CHANGED FROM 2 TO 2
OFFSET CHANGED FROM 2 TO 2
OFFSET CHANGED FROM 2 TO 2
OFFSET CHANGED FROM 2 TO 3
OFFSET CHANGED FROM 3 TO 1
OFFSET CHANGED FROM 1 TO 1
OFFSET CHANGED FROM 1 TO 1
OFFSET CHANGED FROM 1 TO 1
OFFSET CHANGED FROM 1 TO 1
OFFSET CHANGED FROM 1 TO 3
OFFSET CHANGED FROM 3 TO 4
OFFSET CHANGED FROM 4 TO 4
PREFETCHING INTO L2 w/ PREFETCH SCORE 31 (MSHR OCC = 32)
PREFETCHING INTO L2 w/ PREFETCH SCORE 31 (MSHR OCC = 28)
PREFETCHING INTO L2 w/ PREFETCH SCORE 31 (MSHR OCC = 29)
PREFETCHING INTO L2 w/ PREFETCH SCORE 31 (MSHR OCC = 29)
PREFETCHING INTO L2 w/ PREFETCH SCORE 31 (MSHR OCC = 30)
PREFETCHING INTO L2 w/ PREFETCH SCORE 31 (MSHR OCC = 30)
PREFETCHING INTO L2 w/ PREFETCH SCORE 31 (MSHR OCC = 29)
PREFETCHING INTO L2 w/ PREFETCH SCORE 31 (MSHR OCC = 29)
PREFETCHING INTO L2 w/ PREFETCH SCORE 31 (MSHR OCC = 28)
PREFETCHING INTO L2 w/ PREFETCH SCORE 31 (MSHR OCC = 28)
PREFETCHING INTO L2 w/ PREFETCH SCORE 31 (MSHR OCC = 28)
PREFETCHING INTO L2 w/ PREFETCH SCORE 31 (MSHR OCC = 29)
PREFETCHING INTO L2 w/ PREFETCH SCORE 31 (MSHR OCC = 30)
PREFETCHING INTO L2 w/ PREFETCH SCORE 31 (MSHR OCC = 30)
PREFETCHING INTO L2 w/ PREFETCH SCORE 31 (MSHR OCC = 31)
PREFETCHING INTO L2 w/ PREFETCH SCORE 31 (MSHR OCC = 32)
PREFETCHING INTO L2 w/ PREFETCH SCORE 31 (MSHR OCC = 32)
PREFETCHING INTO L2 w/ PREFETCH SCORE 31 (MSHR OCC = 28)
PREFETCHING INTO L2 w/ PREFETCH SCORE 31 (MSHR OCC = 28)
PREFETCHING INTO L2 w/ PREFETCH SCORE 31 (MSHR OCC = 28)
OFFSET CHANGED FROM 4 TO 4
OFFSET CHANGED FROM 4 TO 6
OFFSET CHANGED FROM 6 TO 2
OFFSET CHANGED FROM 2 TO 2
OFFSET CHANGED FROM 2 TO 3
OFFSET CHANGED FROM 3 TO 3
OFFSET CHANGED FROM 3 TO 2
OFFSET CHANGED FROM 2 TO 2
OFFSET CHANGED FROM 2 TO 2
OFFSET CHANGED FROM 2 TO 2
OFFSET CHANGED FROM 2 TO 2
OFFSET CHANGED FROM 2 TO 2
OFFSET CHANGED FROM 2 TO 4
OFFSET CHANGED FROM 4 TO 1
OFFSET CHANGED FROM 1 TO 3
OFFSET CHANGED FROM 3 TO 2
OFFSET CHANGED FROM 2 TO 2
OFFSET CHANGED FROM 2 TO 1
OFFSET CHANGED FROM 1 TO 1
OFFSET CHANGED FROM 1 TO 1
OFFSET CHANGED FROM 1 TO 1
OFFSET CHANGED FROM 1 TO 1
OFFSET CHANGED FROM 1 TO 4
OFFSET CHANGED FROM 4 TO 4
OFFSET CHANGED FROM 4 TO 4
PREFETCHING INTO L2 w/ PREFETCH SCORE 31 (MSHR OCC = 28)
PREFETCHING INTO L2 w/ PREFETCH SCORE 31 (MSHR OCC = 29)
PREFETCHING INTO L2 w/ PREFETCH SCORE 31 (MSHR OCC = 28)
PREFETCHING INTO L2 w/ PREFETCH SCORE 31 (MSHR OCC = 29)
PREFETCHING INTO L2 w/ PREFETCH SCORE 31 (MSHR OCC = 30)
PREFETCHING INTO L2 w/ PREFETCH SCORE 31 (MSHR OCC = 32)
PREFETCHING INTO L2 w/ PREFETCH SCORE 31 (MSHR OCC = 32)
PREFETCHING INTO L2 w/ PREFETCH SCORE 31 (MSHR OCC = 28)
PREFETCHING INTO L2 w/ PREFETCH SCORE 31 (MSHR OCC = 28)
PREFETCHING INTO L2 w/ PREFETCH SCORE 31 (MSHR OCC = 32)
PREFETCHING INTO L2 w/ PREFETCH SCORE 31 (MSHR OCC = 32)
PREFETCHING INTO L2 w/ PREFETCH SCORE 31 (MSHR OCC = 32)
PREFETCHING INTO L2 w/ PREFETCH SCORE 31 (MSHR OCC = 32)
PREFETCHING INTO L2 w/ PREFETCH SCORE 31 (MSHR OCC = 32)
PREFETCHING INTO L2 w/ PREFETCH SCORE 31 (MSHR OCC = 32)
PREFETCHING INTO L2 w/ PREFETCH SCORE 31 (MSHR OCC = 28)
PREFETCHING INTO L2 w/ PREFETCH SCORE 31 (MSHR OCC = 29)
PREFETCHING INTO L2 w/ PREFETCH SCORE 31 (MSHR OCC = 32)
PREFETCHING INTO L2 w/ PREFETCH SCORE 31 (MSHR OCC = 32)
PREFETCHING INTO L2 w/ PREFETCH SCORE 31 (MSHR OCC = 32)
PREFETCHING INTO L2 w/ PREFETCH SCORE 31 (MSHR OCC = 29)
PREFETCHING INTO L2 w/ PREFETCH SCORE 31 (MSHR OCC = 30)
PREFETCHING INTO L2 w/ PREFETCH SCORE 31 (MSHR OCC = 30)
PREFETCHING INTO L2 w/ PREFETCH SCORE 31 (MSHR OCC = 32)
PREFETCHING INTO L2 w/ PREFETCH SCORE 31 (MSHR OCC = 30)
PREFETCHING INTO L2 w/ PREFETCH SCORE 31 (MSHR OCC = 28)
PREFETCHING INTO L2 w/ PREFETCH SCORE 31 (MSHR OCC = 31)
PREFETCHING INTO L2 w/ PREFETCH SCORE 31 (MSHR OCC = 28)
PREFETCHING INTO L2 w/ PREFETCH SCORE 31 (MSHR OCC = 29)
PREFETCHING INTO L2 w/ PREFETCH SCORE 31 (MSHR OCC = 29)
OFFSET CHANGED FROM 4 TO 4
OFFSET CHANGED FROM 4 TO 4
OFFSET CHANGED FROM 4 TO 2
OFFSET CHANGED FROM 2 TO 2
OFFSET CHANGED FROM 2 TO 2
OFFSET CHANGED FROM 2 TO 2
OFFSET CHANGED FROM 2 TO 2
OFFSET CHANGED FROM 2 TO 2
OFFSET CHANGED FROM 2 TO 3
OFFSET CHANGED FROM 3 TO 1
OFFSET CHANGED FROM 1 TO 2
Heartbeat CPU 0 instructions: 280000001 cycles: 225985824 heartbeat IPC: 1.1618 cumulative IPC: 1.10153 (Simulation time: 0 hr 8 min 38 sec) 
OFFSET CHANGED FROM 2 TO 2
OFFSET CHANGED FROM 2 TO 2
OFFSET CHANGED FROM 2 TO 2
OFFSET CHANGED FROM 2 TO 2
OFFSET CHANGED FROM 2 TO 2
OFFSET CHANGED FROM 2 TO 2
OFFSET CHANGED FROM 2 TO 1
OFFSET CHANGED FROM 1 TO 1
OFFSET CHANGED FROM 1 TO 1
OFFSET CHANGED FROM 1 TO 4
OFFSET CHANGED FROM 4 TO 3
OFFSET CHANGED FROM 3 TO 4
OFFSET CHANGED FROM 4 TO 4
OFFSET CHANGED FROM 4 TO 4
OFFSET CHANGED FROM 4 TO 1
OFFSET CHANGED FROM 1 TO 4
OFFSET CHANGED FROM 4 TO 2
OFFSET CHANGED FROM 2 TO 2
OFFSET CHANGED FROM 2 TO 3
OFFSET CHANGED FROM 3 TO 2
OFFSET CHANGED FROM 2 TO 2
OFFSET CHANGED FROM 2 TO 3
OFFSET CHANGED FROM 3 TO 2
OFFSET CHANGED FROM 2 TO 1
OFFSET CHANGED FROM 1 TO 2
OFFSET CHANGED FROM 2 TO 2
OFFSET CHANGED FROM 2 TO 2
OFFSET CHANGED FROM 2 TO 2
OFFSET CHANGED FROM 2 TO 2
OFFSET CHANGED FROM 2 TO 2
OFFSET CHANGED FROM 2 TO 1
OFFSET CHANGED FROM 1 TO 1
OFFSET CHANGED FROM 1 TO 1
OFFSET CHANGED FROM 1 TO 1
OFFSET CHANGED FROM 1 TO 1
OFFSET CHANGED FROM 1 TO 2
OFFSET CHANGED FROM 2 TO 3
OFFSET CHANGED FROM 3 TO 4
OFFSET CHANGED FROM 4 TO 5
OFFSET CHANGED FROM 5 TO 4
PREFETCHING INTO L2 w/ PREFETCH SCORE 31 (MSHR OCC = 31)
PREFETCHING INTO L2 w/ PREFETCH SCORE 31 (MSHR OCC = 29)
PREFETCHING INTO L2 w/ PREFETCH SCORE 31 (MSHR OCC = 28)
PREFETCHING INTO L2 w/ PREFETCH SCORE 31 (MSHR OCC = 28)
PREFETCHING INTO L2 w/ PREFETCH SCORE 31 (MSHR OCC = 28)
PREFETCHING INTO L2 w/ PREFETCH SCORE 31 (MSHR OCC = 28)
PREFETCHING INTO L2 w/ PREFETCH SCORE 31 (MSHR OCC = 28)
PREFETCHING INTO L2 w/ PREFETCH SCORE 31 (MSHR OCC = 28)
PREFETCHING INTO L2 w/ PREFETCH SCORE 31 (MSHR OCC = 28)
PREFETCHING INTO L2 w/ PREFETCH SCORE 31 (MSHR OCC = 28)
PREFETCHING INTO L2 w/ PREFETCH SCORE 31 (MSHR OCC = 28)
PREFETCHING INTO L2 w/ PREFETCH SCORE 31 (MSHR OCC = 29)
PREFETCHING INTO L2 w/ PREFETCH SCORE 31 (MSHR OCC = 32)
PREFETCHING INTO L2 w/ PREFETCH SCORE 31 (MSHR OCC = 31)
PREFETCHING INTO L2 w/ PREFETCH SCORE 31 (MSHR OCC = 31)
PREFETCHING INTO L2 w/ PREFETCH SCORE 31 (MSHR OCC = 31)
PREFETCHING INTO L2 w/ PREFETCH SCORE 31 (MSHR OCC = 28)
PREFETCHING INTO L2 w/ PREFETCH SCORE 31 (MSHR OCC = 28)
PREFETCHING INTO L2 w/ PREFETCH SCORE 31 (MSHR OCC = 28)
OFFSET CHANGED FROM 4 TO 4
OFFSET CHANGED FROM 4 TO 1
OFFSET CHANGED FROM 1 TO 2
OFFSET CHANGED FROM 2 TO 2
OFFSET CHANGED FROM 2 TO 2
OFFSET CHANGED FROM 2 TO 3
OFFSET CHANGED FROM 3 TO 3
OFFSET CHANGED FROM 3 TO 2
OFFSET CHANGED FROM 2 TO 4
OFFSET CHANGED FROM 4 TO 3
OFFSET CHANGED FROM 3 TO 2
OFFSET CHANGED FROM 2 TO 2
OFFSET CHANGED FROM 2 TO 2
OFFSET CHANGED FROM 2 TO 2
OFFSET CHANGED FROM 2 TO 2
OFFSET CHANGED FROM 2 TO 2
OFFSET CHANGED FROM 2 TO 2
OFFSET CHANGED FROM 2 TO 2
OFFSET CHANGED FROM 2 TO 2
OFFSET CHANGED FROM 2 TO 1
OFFSET CHANGED FROM 1 TO 2
OFFSET CHANGED FROM 2 TO 1
Heartbeat CPU 0 instructions: 290000002 cycles: 235573825 heartbeat IPC: 1.04297 cumulative IPC: 1.09896 (Simulation time: 0 hr 8 min 57 sec) 
OFFSET CHANGED FROM 1 TO 2
OFFSET CHANGED FROM 2 TO 1
OFFSET CHANGED FROM 1 TO 1
OFFSET CHANGED FROM 1 TO 1
OFFSET CHANGED FROM 1 TO 1
OFFSET CHANGED FROM 1 TO 2
OFFSET CHANGED FROM 2 TO 2
OFFSET CHANGED FROM 2 TO 1
OFFSET CHANGED FROM 1 TO 3
OFFSET CHANGED FROM 3 TO 4
OFFSET CHANGED FROM 4 TO 4
PREFETCHING INTO L2 w/ PREFETCH SCORE 31 (MSHR OCC = 30)
PREFETCHING INTO L2 w/ PREFETCH SCORE 31 (MSHR OCC = 31)
PREFETCHING INTO L2 w/ PREFETCH SCORE 31 (MSHR OCC = 32)
PREFETCHING INTO L2 w/ PREFETCH SCORE 31 (MSHR OCC = 28)
PREFETCHING INTO L2 w/ PREFETCH SCORE 31 (MSHR OCC = 28)
PREFETCHING INTO L2 w/ PREFETCH SCORE 31 (MSHR OCC = 29)
PREFETCHING INTO L2 w/ PREFETCH SCORE 31 (MSHR OCC = 32)
PREFETCHING INTO L2 w/ PREFETCH SCORE 31 (MSHR OCC = 32)
PREFETCHING INTO L2 w/ PREFETCH SCORE 31 (MSHR OCC = 32)
PREFETCHING INTO L2 w/ PREFETCH SCORE 31 (MSHR OCC = 32)
PREFETCHING INTO L2 w/ PREFETCH SCORE 31 (MSHR OCC = 32)
PREFETCHING INTO L2 w/ PREFETCH SCORE 31 (MSHR OCC = 31)
PREFETCHING INTO L2 w/ PREFETCH SCORE 31 (MSHR OCC = 28)
PREFETCHING INTO L2 w/ PREFETCH SCORE 31 (MSHR OCC = 29)
PREFETCHING INTO L2 w/ PREFETCH SCORE 31 (MSHR OCC = 28)
PREFETCHING INTO L2 w/ PREFETCH SCORE 31 (MSHR OCC = 28)
PREFETCHING INTO L2 w/ PREFETCH SCORE 31 (MSHR OCC = 28)
OFFSET CHANGED FROM 4 TO 4
OFFSET CHANGED FROM 4 TO 6
OFFSET CHANGED FROM 6 TO 2
OFFSET CHANGED FROM 2 TO 2
OFFSET CHANGED FROM 2 TO 3
OFFSET CHANGED FROM 3 TO 2
OFFSET CHANGED FROM 2 TO 2
OFFSET CHANGED FROM 2 TO 2
OFFSET CHANGED FROM 2 TO 3
OFFSET CHANGED FROM 3 TO 2
OFFSET CHANGED FROM 2 TO 2
OFFSET CHANGED FROM 2 TO 2
OFFSET CHANGED FROM 2 TO 3
OFFSET CHANGED FROM 3 TO 2
OFFSET CHANGED FROM 2 TO 2
OFFSET CHANGED FROM 2 TO 2
OFFSET CHANGED FROM 2 TO 2
OFFSET CHANGED FROM 2 TO 2
OFFSET CHANGED FROM 2 TO 3
OFFSET CHANGED FROM 3 TO 3
OFFSET CHANGED FROM 3 TO 3
OFFSET CHANGED FROM 3 TO 1
OFFSET CHANGED FROM 1 TO 1
OFFSET CHANGED FROM 1 TO 2
OFFSET CHANGED FROM 2 TO 2
OFFSET CHANGED FROM 2 TO 1
OFFSET CHANGED FROM 1 TO 1
OFFSET CHANGED FROM 1 TO 1
OFFSET CHANGED FROM 1 TO 1
OFFSET CHANGED FROM 1 TO 1
OFFSET CHANGED FROM 1 TO 1
OFFSET CHANGED FROM 1 TO 1
OFFSET CHANGED FROM 1 TO 1
OFFSET CHANGED FROM 1 TO 1
OFFSET CHANGED FROM 1 TO 4
OFFSET CHANGED FROM 4 TO 1
OFFSET CHANGED FROM 1 TO 4
OFFSET CHANGED FROM 4 TO 4
OFFSET CHANGED FROM 4 TO 4
OFFSET CHANGED FROM 4 TO 3
OFFSET CHANGED FROM 3 TO 4
OFFSET CHANGED FROM 4 TO 2
OFFSET CHANGED FROM 2 TO 2
OFFSET CHANGED FROM 2 TO 2
OFFSET CHANGED FROM 2 TO 3
OFFSET CHANGED FROM 3 TO 3
OFFSET CHANGED FROM 3 TO 3
OFFSET CHANGED FROM 3 TO 2
OFFSET CHANGED FROM 2 TO 2
OFFSET CHANGED FROM 2 TO 3
OFFSET CHANGED FROM 3 TO 3
Heartbeat CPU 0 instructions: 300000002 cycles: 245310434 heartbeat IPC: 1.02705 cumulative IPC: 1.09589 (Simulation time: 0 hr 9 min 15 sec) 
Finished CPU 0 instructions: 250000002 cycles: 228125159 cumulative IPC: 1.09589 (Simulation time: 0 hr 9 min 15 sec) 

ChampSim completed all CPUs

Region of Interest Statistics

CPU 0 cumulative IPC: 1.09589 instructions: 250000002 cycles: 228125159
L1D TOTAL     ACCESS:   47241468  HIT:   43710662  MISS:    3530806
L1D LOAD      ACCESS:   43572448  HIT:   40267168  MISS:    3305280
L1D RFO       ACCESS:    3669020  HIT:    3443494  MISS:     225526
L1D PREFETCH  ACCESS:          0  HIT:          0  MISS:          0
L1D WRITEBACK ACCESS:          0  HIT:          0  MISS:          0
L1D PREFETCH  REQUESTED:          0  ISSUED:          0  USEFUL:          0  USELESS:          0
L1D AVERAGE MISS LATENCY: 53.7546 cycles
L1I TOTAL     ACCESS:   47312774  HIT:   47311544  MISS:       1230
L1I LOAD      ACCESS:   47312165  HIT:   47311369  MISS:        796
L1I RFO       ACCESS:          0  HIT:          0  MISS:          0
L1I PREFETCH  ACCESS:        609  HIT:        175  MISS:        434
L1I WRITEBACK ACCESS:          0  HIT:          0  MISS:          0
L1I PREFETCH  REQUESTED:       1059  ISSUED:       1059  USEFUL:        276  USELESS:        165
L1I AVERAGE MISS LATENCY: 142.342 cycles
L2C TOTAL     ACCESS:    6548161  HIT:    3208978  MISS:    3339183
L2C LOAD      ACCESS:    3305939  HIT:    2408299  MISS:     897640
L2C RFO       ACCESS:     225519  HIT:      16231  MISS:     209288
L2C PREFETCH  ACCESS:    2727134  HIT:     495594  MISS:    2231540
L2C WRITEBACK ACCESS:     289569  HIT:     288854  MISS:        715
L2C PREFETCH  REQUESTED:    3192385  ISSUED:    3192376  USEFUL:    1950599  USELESS:     282888
L2C AVERAGE MISS LATENCY: 152.523 cycles
LLC TOTAL     ACCESS:    3603623  HIT:     448901  MISS:    3154722
LLC LOAD      ACCESS:     465674  HIT:      73576  MISS:     392098
LLC RFO       ACCESS:     209288  HIT:      34431  MISS:     174857
LLC PREFETCH  ACCESS:    2664081  HIT:      78705  MISS:    2585376
LLC WRITEBACK ACCESS:     264580  HIT:     262189  MISS:       2391
LLC PREFETCH  REQUESTED:          0  ISSUED:          0  USEFUL:      25870  USELESS:    2558211
LLC AVERAGE MISS LATENCY: 147.895 cycles
Major fault: 0 Minor fault: 3177
CPU 0 L1I next line prefetcher final stats
CPU 0 L2C best offset prefetcher final stats

DRAM Statistics
 CHANNEL 0
 RQ ROW_BUFFER_HIT:    1833205  ROW_BUFFER_MISS:    1319041
 DBUS_CONGESTED:     550192
 WQ ROW_BUFFER_HIT:     116225  ROW_BUFFER_MISS:     118509  FULL:          0

 AVG_CONGESTED_CYCLE: 5

CPU 0 Branch Prediction Accuracy: 95.9595% MPKI: 3.63614 Average ROB Occupancy at Mispredict: 77.6405

Branch types
NOT_BRANCH: 227501726 91.0007%
BRANCH_DIRECT_JUMP: 458326 0.18333%
BRANCH_INDIRECT: 344 0.0001376%
BRANCH_CONDITIONAL: 21316874 8.52675%
BRANCH_DIRECT_CALL: 360724 0.14429%
BRANCH_INDIRECT_CALL: 563 0.0002252%
BRANCH_RETURN: 361286 0.144514%
BRANCH_OTHER: 0 0%

