
*** ChampSim Multicore Out-of-Order Simulator ***

Warmup Instructions: 50000000
Simulation Instructions: 250000000
Number of CPUs: 1
LLC sets: 2048
LLC ways: 16
Off-chip DRAM Size: 4096 MB Channels: 1 Width: 64-bit Data Rate: 3200 MT/s

CPU 0 runs /home/wezelis2/ECE511_Project/ChampSim/dpc3_traces/627.cam4_s-490B.champsimtrace.xz
CPU 0 Bimodal branch predictor
CPU 0 L1I next line prefetcher
INIT BEST RECENT REQUEST TABLE MODULE
INIT DELAY QUEUE MODULE
INIT PREFETCH THROTTLE MODULE
INIT OFFSET SCORE MODULE
INIT BEST OFFSET PREFETCHER
OFFSET CHANGED FROM 1 TO 2
OFFSET CHANGED FROM 2 TO 4
OFFSET CHANGED FROM 4 TO 4
OFFSET CHANGED FROM 4 TO 3
OFFSET CHANGED FROM 3 TO 3
OFFSET CHANGED FROM 3 TO 6
OFFSET CHANGED FROM 6 TO 7
OFFSET CHANGED FROM 7 TO 1
OFFSET CHANGED FROM 1 TO 5
OFFSET CHANGED FROM 5 TO 5
OFFSET CHANGED FROM 5 TO 4
OFFSET CHANGED FROM 4 TO 1
OFFSET CHANGED FROM 1 TO 1
OFFSET CHANGED FROM 1 TO 1
OFFSET CHANGED FROM 1 TO 1
OFFSET CHANGED FROM 1 TO 2
OFFSET CHANGED FROM 2 TO 1
OFFSET CHANGED FROM 1 TO 2
OFFSET CHANGED FROM 2 TO 8
OFFSET CHANGED FROM 8 TO 8
OFFSET CHANGED FROM 8 TO 2
OFFSET CHANGED FROM 2 TO 2
OFFSET CHANGED FROM 2 TO 4
OFFSET CHANGED FROM 4 TO 5
OFFSET CHANGED FROM 5 TO 2
OFFSET CHANGED FROM 2 TO 1
OFFSET CHANGED FROM 1 TO 3
OFFSET CHANGED FROM 3 TO 5
OFFSET CHANGED FROM 5 TO 6
OFFSET CHANGED FROM 6 TO 5
OFFSET CHANGED FROM 5 TO 7
OFFSET CHANGED FROM 7 TO 8
OFFSET CHANGED FROM 8 TO 6
OFFSET CHANGED FROM 6 TO 8
OFFSET CHANGED FROM 8 TO 2
OFFSET CHANGED FROM 2 TO 3
OFFSET CHANGED FROM 3 TO 4
OFFSET CHANGED FROM 4 TO 3
OFFSET CHANGED FROM 3 TO 6
OFFSET CHANGED FROM 6 TO 6
OFFSET CHANGED FROM 6 TO 2
OFFSET CHANGED FROM 2 TO 5
OFFSET CHANGED FROM 5 TO 5
OFFSET CHANGED FROM 5 TO 5
OFFSET CHANGED FROM 5 TO 1
OFFSET CHANGED FROM 1 TO 2
OFFSET CHANGED FROM 2 TO 1
OFFSET CHANGED FROM 1 TO 1
OFFSET CHANGED FROM 1 TO 2
OFFSET CHANGED FROM 2 TO 1
OFFSET CHANGED FROM 1 TO 2
OFFSET CHANGED FROM 2 TO 9
OFFSET CHANGED FROM 9 TO 9
OFFSET CHANGED FROM 9 TO 2
OFFSET CHANGED FROM 2 TO 4
OFFSET CHANGED FROM 4 TO 4
OFFSET CHANGED FROM 4 TO 4
OFFSET CHANGED FROM 4 TO 5
OFFSET CHANGED FROM 5 TO 6
OFFSET CHANGED FROM 6 TO 4
OFFSET CHANGED FROM 4 TO 5
OFFSET CHANGED FROM 5 TO 1
OFFSET CHANGED FROM 1 TO 4
OFFSET CHANGED FROM 4 TO 1
OFFSET CHANGED FROM 1 TO 4
OFFSET CHANGED FROM 4 TO 1
OFFSET CHANGED FROM 1 TO 4
OFFSET CHANGED FROM 4 TO 4
OFFSET CHANGED FROM 4 TO 1
OFFSET CHANGED FROM 1 TO 2
OFFSET CHANGED FROM 2 TO 1
OFFSET CHANGED FROM 1 TO 3
OFFSET CHANGED FROM 3 TO 3
OFFSET CHANGED FROM 3 TO 3
OFFSET CHANGED FROM 3 TO 8
Heartbeat CPU 0 instructions: 10000000 cycles: 3247412 heartbeat IPC: 3.07938 cumulative IPC: 3.07938 (Simulation time: 0 hr 0 min 19 sec) 
OFFSET CHANGED FROM 8 TO 6
OFFSET CHANGED FROM 6 TO 3
OFFSET CHANGED FROM 3 TO 5
OFFSET CHANGED FROM 5 TO 5
OFFSET CHANGED FROM 5 TO 5
OFFSET CHANGED FROM 5 TO 2
OFFSET CHANGED FROM 2 TO 1
OFFSET CHANGED FROM 1 TO 1
OFFSET CHANGED FROM 1 TO 1
OFFSET CHANGED FROM 1 TO 2
OFFSET CHANGED FROM 2 TO 2
OFFSET CHANGED FROM 2 TO 3
OFFSET CHANGED FROM 3 TO 8
OFFSET CHANGED FROM 8 TO 8
OFFSET CHANGED FROM 8 TO 6
OFFSET CHANGED FROM 6 TO 1
OFFSET CHANGED FROM 1 TO 4
OFFSET CHANGED FROM 4 TO 2
OFFSET CHANGED FROM 2 TO 4
OFFSET CHANGED FROM 4 TO 5
OFFSET CHANGED FROM 5 TO 5
OFFSET CHANGED FROM 5 TO 5
OFFSET CHANGED FROM 5 TO 4
OFFSET CHANGED FROM 4 TO 1
OFFSET CHANGED FROM 1 TO 1
OFFSET CHANGED FROM 1 TO 1
OFFSET CHANGED FROM 1 TO 1
OFFSET CHANGED FROM 1 TO 1
OFFSET CHANGED FROM 1 TO 1
OFFSET CHANGED FROM 1 TO 4
OFFSET CHANGED FROM 4 TO 6
OFFSET CHANGED FROM 6 TO 7
OFFSET CHANGED FROM 7 TO 5
OFFSET CHANGED FROM 5 TO 1
OFFSET CHANGED FROM 1 TO 1
OFFSET CHANGED FROM 1 TO 1
OFFSET CHANGED FROM 1 TO 1
OFFSET CHANGED FROM 1 TO 1
OFFSET CHANGED FROM 1 TO 1
OFFSET CHANGED FROM 1 TO 9
OFFSET CHANGED FROM 9 TO 8
OFFSET CHANGED FROM 8 TO 8
OFFSET CHANGED FROM 8 TO 6
OFFSET CHANGED FROM 6 TO 3
OFFSET CHANGED FROM 3 TO 4
OFFSET CHANGED FROM 4 TO 4
OFFSET CHANGED FROM 4 TO 2
OFFSET CHANGED FROM 2 TO 8
OFFSET CHANGED FROM 8 TO 6
OFFSET CHANGED FROM 6 TO 7
OFFSET CHANGED FROM 7 TO 5
OFFSET CHANGED FROM 5 TO 7
OFFSET CHANGED FROM 7 TO 3
OFFSET CHANGED FROM 3 TO 5
OFFSET CHANGED FROM 5 TO 14
OFFSET CHANGED FROM 14 TO 7
OFFSET CHANGED FROM 7 TO 5
OFFSET CHANGED FROM 5 TO 3
OFFSET CHANGED FROM 3 TO 3
OFFSET CHANGED FROM 3 TO 3
OFFSET CHANGED FROM 3 TO 8
OFFSET CHANGED FROM 8 TO 4
OFFSET CHANGED FROM 4 TO 2
OFFSET CHANGED FROM 2 TO 5
OFFSET CHANGED FROM 5 TO 5
OFFSET CHANGED FROM 5 TO 5
OFFSET CHANGED FROM 5 TO 2
OFFSET CHANGED FROM 2 TO 1
OFFSET CHANGED FROM 1 TO 2
Heartbeat CPU 0 instructions: 20000002 cycles: 6444854 heartbeat IPC: 3.1275 cumulative IPC: 3.10325 (Simulation time: 0 hr 0 min 37 sec) 
OFFSET CHANGED FROM 2 TO 1
OFFSET CHANGED FROM 1 TO 2
OFFSET CHANGED FROM 2 TO 1
OFFSET CHANGED FROM 1 TO 1
OFFSET CHANGED FROM 1 TO 1
OFFSET CHANGED FROM 1 TO 3
OFFSET CHANGED FROM 3 TO 2
OFFSET CHANGED FROM 2 TO 1
OFFSET CHANGED FROM 1 TO 9
OFFSET CHANGED FROM 9 TO 4
OFFSET CHANGED FROM 4 TO 4
OFFSET CHANGED FROM 4 TO 3
OFFSET CHANGED FROM 3 TO 4
OFFSET CHANGED FROM 4 TO 3
OFFSET CHANGED FROM 3 TO 5
OFFSET CHANGED FROM 5 TO 3
OFFSET CHANGED FROM 3 TO 4
OFFSET CHANGED FROM 4 TO 7
OFFSET CHANGED FROM 7 TO 1
OFFSET CHANGED FROM 1 TO 4
OFFSET CHANGED FROM 4 TO 2
OFFSET CHANGED FROM 2 TO 1
OFFSET CHANGED FROM 1 TO 3
OFFSET CHANGED FROM 3 TO 3
OFFSET CHANGED FROM 3 TO 3
OFFSET CHANGED FROM 3 TO 7
OFFSET CHANGED FROM 7 TO 7
OFFSET CHANGED FROM 7 TO 1
OFFSET CHANGED FROM 1 TO 5
OFFSET CHANGED FROM 5 TO 6
OFFSET CHANGED FROM 6 TO 5
OFFSET CHANGED FROM 5 TO 1
OFFSET CHANGED FROM 1 TO 1
OFFSET CHANGED FROM 1 TO 1
OFFSET CHANGED FROM 1 TO 1
OFFSET CHANGED FROM 1 TO 1
OFFSET CHANGED FROM 1 TO 2
OFFSET CHANGED FROM 2 TO 1
OFFSET CHANGED FROM 1 TO 8
OFFSET CHANGED FROM 8 TO 9
OFFSET CHANGED FROM 9 TO 2
OFFSET CHANGED FROM 2 TO 4
OFFSET CHANGED FROM 4 TO 4
OFFSET CHANGED FROM 4 TO 4
OFFSET CHANGED FROM 4 TO 5
OFFSET CHANGED FROM 5 TO 5
OFFSET CHANGED FROM 5 TO 6
OFFSET CHANGED FROM 6 TO 4
OFFSET CHANGED FROM 4 TO 4
OFFSET CHANGED FROM 4 TO 4
OFFSET CHANGED FROM 4 TO 3
OFFSET CHANGED FROM 3 TO 3
OFFSET CHANGED FROM 3 TO 4
OFFSET CHANGED FROM 4 TO 5
OFFSET CHANGED FROM 5 TO 8
OFFSET CHANGED FROM 8 TO 11
OFFSET CHANGED FROM 11 TO 2
OFFSET CHANGED FROM 2 TO 2
OFFSET CHANGED FROM 2 TO 3
OFFSET CHANGED FROM 3 TO 3
OFFSET CHANGED FROM 3 TO 3
OFFSET CHANGED FROM 3 TO 9
OFFSET CHANGED FROM 9 TO 1
OFFSET CHANGED FROM 1 TO 1
OFFSET CHANGED FROM 1 TO 5
OFFSET CHANGED FROM 5 TO 5
OFFSET CHANGED FROM 5 TO 4
OFFSET CHANGED FROM 4 TO 2
OFFSET CHANGED FROM 2 TO 2
OFFSET CHANGED FROM 2 TO 2
OFFSET CHANGED FROM 2 TO 2
OFFSET CHANGED FROM 2 TO 2
OFFSET CHANGED FROM 2 TO 2
OFFSET CHANGED FROM 2 TO 2
OFFSET CHANGED FROM 2 TO 2
OFFSET CHANGED FROM 2 TO 2
Heartbeat CPU 0 instructions: 30000003 cycles: 9658733 heartbeat IPC: 3.11151 cumulative IPC: 3.106 (Simulation time: 0 hr 0 min 56 sec) 
OFFSET CHANGED FROM 2 TO 1
OFFSET CHANGED FROM 1 TO 3
OFFSET CHANGED FROM 3 TO 4
OFFSET CHANGED FROM 4 TO 4
OFFSET CHANGED FROM 4 TO 4
OFFSET CHANGED FROM 4 TO 5
OFFSET CHANGED FROM 5 TO 5
OFFSET CHANGED FROM 5 TO 5
OFFSET CHANGED FROM 5 TO 4
OFFSET CHANGED FROM 4 TO 5
OFFSET CHANGED FROM 5 TO 1
OFFSET CHANGED FROM 1 TO 4
OFFSET CHANGED FROM 4 TO 2
OFFSET CHANGED FROM 2 TO 2
OFFSET CHANGED FROM 2 TO 3
OFFSET CHANGED FROM 3 TO 1
OFFSET CHANGED FROM 1 TO 5
OFFSET CHANGED FROM 5 TO 5
OFFSET CHANGED FROM 5 TO 6
OFFSET CHANGED FROM 6 TO 1
OFFSET CHANGED FROM 1 TO 1
OFFSET CHANGED FROM 1 TO 1
OFFSET CHANGED FROM 1 TO 1
OFFSET CHANGED FROM 1 TO 1
OFFSET CHANGED FROM 1 TO 2
OFFSET CHANGED FROM 2 TO 2
OFFSET CHANGED FROM 2 TO 8
OFFSET CHANGED FROM 8 TO 10
OFFSET CHANGED FROM 10 TO 10
OFFSET CHANGED FROM 10 TO 4
OFFSET CHANGED FROM 4 TO 2
OFFSET CHANGED FROM 2 TO 4
OFFSET CHANGED FROM 4 TO 4
OFFSET CHANGED FROM 4 TO 4
OFFSET CHANGED FROM 4 TO 4
OFFSET CHANGED FROM 4 TO 8
OFFSET CHANGED FROM 8 TO 5
OFFSET CHANGED FROM 5 TO 5
OFFSET CHANGED FROM 5 TO 5
OFFSET CHANGED FROM 5 TO 6
OFFSET CHANGED FROM 6 TO 4
OFFSET CHANGED FROM 4 TO 5
OFFSET CHANGED FROM 5 TO 13
OFFSET CHANGED FROM 13 TO 5
OFFSET CHANGED FROM 5 TO 6
OFFSET CHANGED FROM 6 TO 4
OFFSET CHANGED FROM 4 TO 3
OFFSET CHANGED FROM 3 TO 6
OFFSET CHANGED FROM 6 TO 7
OFFSET CHANGED FROM 7 TO 1
OFFSET CHANGED FROM 1 TO 5
OFFSET CHANGED FROM 5 TO 6
OFFSET CHANGED FROM 6 TO 5
OFFSET CHANGED FROM 5 TO 1
OFFSET CHANGED FROM 1 TO 1
OFFSET CHANGED FROM 1 TO 2
OFFSET CHANGED FROM 2 TO 2
OFFSET CHANGED FROM 2 TO 1
OFFSET CHANGED FROM 1 TO 2
OFFSET CHANGED FROM 2 TO 1
OFFSET CHANGED FROM 1 TO 1
OFFSET CHANGED FROM 1 TO 9
OFFSET CHANGED FROM 9 TO 8
OFFSET CHANGED FROM 8 TO 5
OFFSET CHANGED FROM 5 TO 4
Heartbeat CPU 0 instructions: 40000000 cycles: 12872115 heartbeat IPC: 3.11199 cumulative IPC: 3.10749 (Simulation time: 0 hr 1 min 14 sec) 
OFFSET CHANGED FROM 4 TO 4
OFFSET CHANGED FROM 4 TO 4
OFFSET CHANGED FROM 4 TO 1
OFFSET CHANGED FROM 1 TO 3
OFFSET CHANGED FROM 3 TO 2
OFFSET CHANGED FROM 2 TO 5
OFFSET CHANGED FROM 5 TO 4
OFFSET CHANGED FROM 4 TO 4
OFFSET CHANGED FROM 4 TO 4
OFFSET CHANGED FROM 4 TO 6
OFFSET CHANGED FROM 6 TO 6
OFFSET CHANGED FROM 6 TO 8
OFFSET CHANGED FROM 8 TO 1
OFFSET CHANGED FROM 1 TO 4
OFFSET CHANGED FROM 4 TO 3
OFFSET CHANGED FROM 3 TO 4
OFFSET CHANGED FROM 4 TO 6
OFFSET CHANGED FROM 6 TO 1
OFFSET CHANGED FROM 1 TO 1
OFFSET CHANGED FROM 1 TO 5
OFFSET CHANGED FROM 5 TO 5
OFFSET CHANGED FROM 5 TO 5
OFFSET CHANGED FROM 5 TO 1
OFFSET CHANGED FROM 1 TO 1
OFFSET CHANGED FROM 1 TO 1
OFFSET CHANGED FROM 1 TO 2
OFFSET CHANGED FROM 2 TO 2
OFFSET CHANGED FROM 2 TO 2
OFFSET CHANGED FROM 2 TO 3
OFFSET CHANGED FROM 3 TO 8
OFFSET CHANGED FROM 8 TO 8
OFFSET CHANGED FROM 8 TO 9
OFFSET CHANGED FROM 9 TO 9
OFFSET CHANGED FROM 9 TO 9
OFFSET CHANGED FROM 9 TO 5
OFFSET CHANGED FROM 5 TO 5
OFFSET CHANGED FROM 5 TO 4
OFFSET CHANGED FROM 4 TO 4
OFFSET CHANGED FROM 4 TO 1
OFFSET CHANGED FROM 1 TO 4
OFFSET CHANGED FROM 4 TO 4
OFFSET CHANGED FROM 4 TO 1
OFFSET CHANGED FROM 1 TO 4
OFFSET CHANGED FROM 4 TO 3
OFFSET CHANGED FROM 3 TO 1
OFFSET CHANGED FROM 1 TO 1
OFFSET CHANGED FROM 1 TO 1
OFFSET CHANGED FROM 1 TO 1
OFFSET CHANGED FROM 1 TO 1
OFFSET CHANGED FROM 1 TO 3
OFFSET CHANGED FROM 3 TO 4
OFFSET CHANGED FROM 4 TO 3
OFFSET CHANGED FROM 3 TO 7
OFFSET CHANGED FROM 7 TO 6
OFFSET CHANGED FROM 6 TO 4
OFFSET CHANGED FROM 4 TO 5
OFFSET CHANGED FROM 5 TO 5
OFFSET CHANGED FROM 5 TO 5
OFFSET CHANGED FROM 5 TO 1
OFFSET CHANGED FROM 1 TO 1
OFFSET CHANGED FROM 1 TO 1
OFFSET CHANGED FROM 1 TO 1
OFFSET CHANGED FROM 1 TO 1
OFFSET CHANGED FROM 1 TO 1
OFFSET CHANGED FROM 1 TO 3
OFFSET CHANGED FROM 3 TO 2
OFFSET CHANGED FROM 2 TO 8
OFFSET CHANGED FROM 8 TO 10
OFFSET CHANGED FROM 10 TO 2
OFFSET CHANGED FROM 2 TO 4
OFFSET CHANGED FROM 4 TO 1
Heartbeat CPU 0 instructions: 50000002 cycles: 16094066 heartbeat IPC: 3.10371 cumulative IPC: 3.10674 (Simulation time: 0 hr 1 min 33 sec) 

Warmup complete CPU 0 instructions: 50000002 cycles: 16094066 (Simulation time: 0 hr 1 min 33 sec) 

OFFSET CHANGED FROM 1 TO 4
OFFSET CHANGED FROM 4 TO 3
OFFSET CHANGED FROM 3 TO 4
OFFSET CHANGED FROM 4 TO 4
OFFSET CHANGED FROM 4 TO 4
OFFSET CHANGED FROM 4 TO 3
OFFSET CHANGED FROM 3 TO 3
OFFSET CHANGED FROM 3 TO 9
OFFSET CHANGED FROM 9 TO 4
OFFSET CHANGED FROM 4 TO 1
OFFSET CHANGED FROM 1 TO 4
OFFSET CHANGED FROM 4 TO 4
OFFSET CHANGED FROM 4 TO 4
OFFSET CHANGED FROM 4 TO 4
OFFSET CHANGED FROM 4 TO 1
OFFSET CHANGED FROM 1 TO 1
OFFSET CHANGED FROM 1 TO 1
OFFSET CHANGED FROM 1 TO 1
OFFSET CHANGED FROM 1 TO 1
OFFSET CHANGED FROM 1 TO 1
OFFSET CHANGED FROM 1 TO 1
OFFSET CHANGED FROM 1 TO 1
OFFSET CHANGED FROM 1 TO 4
OFFSET CHANGED FROM 4 TO 5
OFFSET CHANGED FROM 5 TO 6
OFFSET CHANGED FROM 6 TO 5
OFFSET CHANGED FROM 5 TO 3
OFFSET CHANGED FROM 3 TO 3
OFFSET CHANGED FROM 3 TO 5
OFFSET CHANGED FROM 5 TO 3
OFFSET CHANGED FROM 3 TO 5
OFFSET CHANGED FROM 5 TO 4
OFFSET CHANGED FROM 4 TO 4
OFFSET CHANGED FROM 4 TO 4
OFFSET CHANGED FROM 4 TO 5
OFFSET CHANGED FROM 5 TO 9
OFFSET CHANGED FROM 9 TO 3
OFFSET CHANGED FROM 3 TO 4
OFFSET CHANGED FROM 4 TO 7
OFFSET CHANGED FROM 7 TO 5
OFFSET CHANGED FROM 5 TO 3
OFFSET CHANGED FROM 3 TO 2
OFFSET CHANGED FROM 2 TO 2
OFFSET CHANGED FROM 2 TO 3
OFFSET CHANGED FROM 3 TO 7
OFFSET CHANGED FROM 7 TO 1
OFFSET CHANGED FROM 1 TO 1
OFFSET CHANGED FROM 1 TO 4
OFFSET CHANGED FROM 4 TO 5
OFFSET CHANGED FROM 5 TO 2
OFFSET CHANGED FROM 2 TO 1
OFFSET CHANGED FROM 1 TO 1
OFFSET CHANGED FROM 1 TO 1
OFFSET CHANGED FROM 1 TO 1
OFFSET CHANGED FROM 1 TO 1
OFFSET CHANGED FROM 1 TO 1
OFFSET CHANGED FROM 1 TO 1
OFFSET CHANGED FROM 1 TO 5
OFFSET CHANGED FROM 5 TO 6
OFFSET CHANGED FROM 6 TO 2
OFFSET CHANGED FROM 2 TO 1
OFFSET CHANGED FROM 1 TO 2
OFFSET CHANGED FROM 2 TO 1
OFFSET CHANGED FROM 1 TO 3
OFFSET CHANGED FROM 3 TO 3
OFFSET CHANGED FROM 3 TO 3
OFFSET CHANGED FROM 3 TO 4
OFFSET CHANGED FROM 4 TO 4
OFFSET CHANGED FROM 4 TO 4
OFFSET CHANGED FROM 4 TO 5
OFFSET CHANGED FROM 5 TO 6
OFFSET CHANGED FROM 6 TO 6
OFFSET CHANGED FROM 6 TO 5
OFFSET CHANGED FROM 5 TO 2
OFFSET CHANGED FROM 2 TO 3
OFFSET CHANGED FROM 3 TO 2
OFFSET CHANGED FROM 2 TO 2
OFFSET CHANGED FROM 2 TO 2
Heartbeat CPU 0 instructions: 60000002 cycles: 24923572 heartbeat IPC: 1.13257 cumulative IPC: 1.13257 (Simulation time: 0 hr 1 min 49 sec) 
OFFSET CHANGED FROM 2 TO 7
OFFSET CHANGED FROM 7 TO 3
OFFSET CHANGED FROM 3 TO 1
OFFSET CHANGED FROM 1 TO 6
OFFSET CHANGED FROM 6 TO 4
OFFSET CHANGED FROM 4 TO 7
OFFSET CHANGED FROM 7 TO 1
OFFSET CHANGED FROM 1 TO 1
OFFSET CHANGED FROM 1 TO 1
OFFSET CHANGED FROM 1 TO 1
OFFSET CHANGED FROM 1 TO 1
OFFSET CHANGED FROM 1 TO 1
OFFSET CHANGED FROM 1 TO 2
OFFSET CHANGED FROM 2 TO 1
OFFSET CHANGED FROM 1 TO 3
OFFSET CHANGED FROM 3 TO 5
OFFSET CHANGED FROM 5 TO 1
OFFSET CHANGED FROM 1 TO 3
OFFSET CHANGED FROM 3 TO 2
OFFSET CHANGED FROM 2 TO 2
OFFSET CHANGED FROM 2 TO 5
OFFSET CHANGED FROM 5 TO 6
OFFSET CHANGED FROM 6 TO 4
OFFSET CHANGED FROM 4 TO 4
OFFSET CHANGED FROM 4 TO 5
OFFSET CHANGED FROM 5 TO 4
OFFSET CHANGED FROM 4 TO 4
OFFSET CHANGED FROM 4 TO 4
OFFSET CHANGED FROM 4 TO 4
OFFSET CHANGED FROM 4 TO 4
OFFSET CHANGED FROM 4 TO 6
OFFSET CHANGED FROM 6 TO 6
OFFSET CHANGED FROM 6 TO 5
OFFSET CHANGED FROM 5 TO 2
OFFSET CHANGED FROM 2 TO 2
OFFSET CHANGED FROM 2 TO 2
OFFSET CHANGED FROM 2 TO 2
OFFSET CHANGED FROM 2 TO 8
OFFSET CHANGED FROM 8 TO 1
OFFSET CHANGED FROM 1 TO 1
OFFSET CHANGED FROM 1 TO 5
OFFSET CHANGED FROM 5 TO 4
OFFSET CHANGED FROM 4 TO 4
OFFSET CHANGED FROM 4 TO 1
OFFSET CHANGED FROM 1 TO 1
OFFSET CHANGED FROM 1 TO 1
OFFSET CHANGED FROM 1 TO 2
OFFSET CHANGED FROM 2 TO 1
OFFSET CHANGED FROM 1 TO 1
OFFSET CHANGED FROM 1 TO 1
OFFSET CHANGED FROM 1 TO 3
OFFSET CHANGED FROM 3 TO 5
OFFSET CHANGED FROM 5 TO 6
OFFSET CHANGED FROM 6 TO 1
OFFSET CHANGED FROM 1 TO 1
OFFSET CHANGED FROM 1 TO 2
OFFSET CHANGED FROM 2 TO 2
OFFSET CHANGED FROM 2 TO 4
OFFSET CHANGED FROM 4 TO 5
OFFSET CHANGED FROM 5 TO 5
OFFSET CHANGED FROM 5 TO 4
OFFSET CHANGED FROM 4 TO 5
OFFSET CHANGED FROM 5 TO 4
OFFSET CHANGED FROM 4 TO 9
OFFSET CHANGED FROM 9 TO 10
OFFSET CHANGED FROM 10 TO 2
OFFSET CHANGED FROM 2 TO 2
OFFSET CHANGED FROM 2 TO 4
OFFSET CHANGED FROM 4 TO 4
OFFSET CHANGED FROM 4 TO 1
OFFSET CHANGED FROM 1 TO 1
Heartbeat CPU 0 instructions: 70000001 cycles: 33137405 heartbeat IPC: 1.21746 cumulative IPC: 1.17348 (Simulation time: 0 hr 2 min 4 sec) 
OFFSET CHANGED FROM 1 TO 1
OFFSET CHANGED FROM 1 TO 1
OFFSET CHANGED FROM 1 TO 1
OFFSET CHANGED FROM 1 TO 1
OFFSET CHANGED FROM 1 TO 1
OFFSET CHANGED FROM 1 TO 1
OFFSET CHANGED FROM 1 TO 5
OFFSET CHANGED FROM 5 TO 4
OFFSET CHANGED FROM 4 TO 5
OFFSET CHANGED FROM 5 TO 7
OFFSET CHANGED FROM 7 TO 3
OFFSET CHANGED FROM 3 TO 2
OFFSET CHANGED FROM 2 TO 2
OFFSET CHANGED FROM 2 TO 2
OFFSET CHANGED FROM 2 TO 5
OFFSET CHANGED FROM 5 TO 4
OFFSET CHANGED FROM 4 TO 7
OFFSET CHANGED FROM 7 TO 5
OFFSET CHANGED FROM 5 TO 4
OFFSET CHANGED FROM 4 TO 11
OFFSET CHANGED FROM 11 TO 10
OFFSET CHANGED FROM 10 TO 3
OFFSET CHANGED FROM 3 TO 7
OFFSET CHANGED FROM 7 TO 9
OFFSET CHANGED FROM 9 TO 3
OFFSET CHANGED FROM 3 TO 3
OFFSET CHANGED FROM 3 TO 2
OFFSET CHANGED FROM 2 TO 2
OFFSET CHANGED FROM 2 TO 9
OFFSET CHANGED FROM 9 TO 4
OFFSET CHANGED FROM 4 TO 1
OFFSET CHANGED FROM 1 TO 4
OFFSET CHANGED FROM 4 TO 4
OFFSET CHANGED FROM 4 TO 5
OFFSET CHANGED FROM 5 TO 2
OFFSET CHANGED FROM 2 TO 1
OFFSET CHANGED FROM 1 TO 1
OFFSET CHANGED FROM 1 TO 2
OFFSET CHANGED FROM 2 TO 1
OFFSET CHANGED FROM 1 TO 1
OFFSET CHANGED FROM 1 TO 1
OFFSET CHANGED FROM 1 TO 1
OFFSET CHANGED FROM 1 TO 6
OFFSET CHANGED FROM 6 TO 8
OFFSET CHANGED FROM 8 TO 3
OFFSET CHANGED FROM 3 TO 1
OFFSET CHANGED FROM 1 TO 1
OFFSET CHANGED FROM 1 TO 2
OFFSET CHANGED FROM 2 TO 3
OFFSET CHANGED FROM 3 TO 4
OFFSET CHANGED FROM 4 TO 3
OFFSET CHANGED FROM 3 TO 3
OFFSET CHANGED FROM 3 TO 3
OFFSET CHANGED FROM 3 TO 3
OFFSET CHANGED FROM 3 TO 7
OFFSET CHANGED FROM 7 TO 7
OFFSET CHANGED FROM 7 TO 12
OFFSET CHANGED FROM 12 TO 3
OFFSET CHANGED FROM 3 TO 4
OFFSET CHANGED FROM 4 TO 2
OFFSET CHANGED FROM 2 TO 2
OFFSET CHANGED FROM 2 TO 2
OFFSET CHANGED FROM 2 TO 5
OFFSET CHANGED FROM 5 TO 1
OFFSET CHANGED FROM 1 TO 1
OFFSET CHANGED FROM 1 TO 5
OFFSET CHANGED FROM 5 TO 4
OFFSET CHANGED FROM 4 TO 5
OFFSET CHANGED FROM 5 TO 1
OFFSET CHANGED FROM 1 TO 1
OFFSET CHANGED FROM 1 TO 1
OFFSET CHANGED FROM 1 TO 2
OFFSET CHANGED FROM 2 TO 1
OFFSET CHANGED FROM 1 TO 2
OFFSET CHANGED FROM 2 TO 1
Heartbeat CPU 0 instructions: 80000003 cycles: 41804627 heartbeat IPC: 1.15377 cumulative IPC: 1.16684 (Simulation time: 0 hr 2 min 21 sec) 
OFFSET CHANGED FROM 1 TO 5
OFFSET CHANGED FROM 5 TO 5
OFFSET CHANGED FROM 5 TO 5
OFFSET CHANGED FROM 5 TO 1
OFFSET CHANGED FROM 1 TO 2
OFFSET CHANGED FROM 2 TO 6
OFFSET CHANGED FROM 6 TO 7
OFFSET CHANGED FROM 7 TO 6
OFFSET CHANGED FROM 6 TO 4
OFFSET CHANGED FROM 4 TO 4
OFFSET CHANGED FROM 4 TO 2
OFFSET CHANGED FROM 2 TO 4
OFFSET CHANGED FROM 4 TO 5
OFFSET CHANGED FROM 5 TO 4
OFFSET CHANGED FROM 4 TO 4
OFFSET CHANGED FROM 4 TO 4
OFFSET CHANGED FROM 4 TO 8
OFFSET CHANGED FROM 8 TO 8
PREFETCHING INTO L2 w/ PREFETCH SCORE 31 (MSHR OCC = 32)
OFFSET CHANGED FROM 8 TO 2
OFFSET CHANGED FROM 2 TO 2
OFFSET CHANGED FROM 2 TO 2
OFFSET CHANGED FROM 2 TO 2
OFFSET CHANGED FROM 2 TO 4
OFFSET CHANGED FROM 4 TO 6
OFFSET CHANGED FROM 6 TO 1
OFFSET CHANGED FROM 1 TO 1
OFFSET CHANGED FROM 1 TO 5
OFFSET CHANGED FROM 5 TO 4
OFFSET CHANGED FROM 4 TO 1
OFFSET CHANGED FROM 1 TO 1
OFFSET CHANGED FROM 1 TO 1
OFFSET CHANGED FROM 1 TO 1
OFFSET CHANGED FROM 1 TO 1
OFFSET CHANGED FROM 1 TO 1
OFFSET CHANGED FROM 1 TO 5
OFFSET CHANGED FROM 5 TO 2
OFFSET CHANGED FROM 2 TO 5
OFFSET CHANGED FROM 5 TO 6
OFFSET CHANGED FROM 6 TO 6
OFFSET CHANGED FROM 6 TO 1
OFFSET CHANGED FROM 1 TO 2
OFFSET CHANGED FROM 2 TO 2
OFFSET CHANGED FROM 2 TO 2
OFFSET CHANGED FROM 2 TO 5
OFFSET CHANGED FROM 5 TO 5
OFFSET CHANGED FROM 5 TO 4
OFFSET CHANGED FROM 4 TO 4
OFFSET CHANGED FROM 4 TO 4
OFFSET CHANGED FROM 4 TO 5
OFFSET CHANGED FROM 5 TO 5
OFFSET CHANGED FROM 5 TO 6
OFFSET CHANGED FROM 6 TO 5
OFFSET CHANGED FROM 5 TO 4
OFFSET CHANGED FROM 4 TO 3
OFFSET CHANGED FROM 3 TO 3
OFFSET CHANGED FROM 3 TO 3
OFFSET CHANGED FROM 3 TO 1
OFFSET CHANGED FROM 1 TO 1
OFFSET CHANGED FROM 1 TO 1
OFFSET CHANGED FROM 1 TO 1
OFFSET CHANGED FROM 1 TO 1
OFFSET CHANGED FROM 1 TO 2
OFFSET CHANGED FROM 2 TO 1
OFFSET CHANGED FROM 1 TO 3
OFFSET CHANGED FROM 3 TO 4
OFFSET CHANGED FROM 4 TO 7
OFFSET CHANGED FROM 7 TO 8
Heartbeat CPU 0 instructions: 90000001 cycles: 50146860 heartbeat IPC: 1.19872 cumulative IPC: 1.17465 (Simulation time: 0 hr 2 min 36 sec) 
OFFSET CHANGED FROM 8 TO 3
OFFSET CHANGED FROM 3 TO 2
OFFSET CHANGED FROM 2 TO 3
OFFSET CHANGED FROM 3 TO 3
OFFSET CHANGED FROM 3 TO 7
OFFSET CHANGED FROM 7 TO 6
OFFSET CHANGED FROM 6 TO 4
OFFSET CHANGED FROM 4 TO 5
OFFSET CHANGED FROM 5 TO 8
OFFSET CHANGED FROM 8 TO 13
OFFSET CHANGED FROM 13 TO 3
OFFSET CHANGED FROM 3 TO 5
OFFSET CHANGED FROM 5 TO 6
OFFSET CHANGED FROM 6 TO 4
OFFSET CHANGED FROM 4 TO 3
OFFSET CHANGED FROM 3 TO 2
OFFSET CHANGED FROM 2 TO 2
OFFSET CHANGED FROM 2 TO 5
OFFSET CHANGED FROM 5 TO 8
OFFSET CHANGED FROM 8 TO 1
OFFSET CHANGED FROM 1 TO 5
OFFSET CHANGED FROM 5 TO 5
OFFSET CHANGED FROM 5 TO 4
OFFSET CHANGED FROM 4 TO 1
OFFSET CHANGED FROM 1 TO 1
OFFSET CHANGED FROM 1 TO 1
OFFSET CHANGED FROM 1 TO 1
OFFSET CHANGED FROM 1 TO 1
OFFSET CHANGED FROM 1 TO 1
OFFSET CHANGED FROM 1 TO 1
OFFSET CHANGED FROM 1 TO 6
OFFSET CHANGED FROM 6 TO 9
OFFSET CHANGED FROM 9 TO 6
OFFSET CHANGED FROM 6 TO 6
OFFSET CHANGED FROM 6 TO 5
OFFSET CHANGED FROM 5 TO 3
OFFSET CHANGED FROM 3 TO 3
OFFSET CHANGED FROM 3 TO 5
OFFSET CHANGED FROM 5 TO 3
OFFSET CHANGED FROM 3 TO 3
OFFSET CHANGED FROM 3 TO 3
OFFSET CHANGED FROM 3 TO 3
OFFSET CHANGED FROM 3 TO 6
OFFSET CHANGED FROM 6 TO 8
OFFSET CHANGED FROM 8 TO 8
OFFSET CHANGED FROM 8 TO 2
OFFSET CHANGED FROM 2 TO 2
OFFSET CHANGED FROM 2 TO 2
OFFSET CHANGED FROM 2 TO 3
OFFSET CHANGED FROM 3 TO 2
OFFSET CHANGED FROM 2 TO 3
OFFSET CHANGED FROM 3 TO 1
OFFSET CHANGED FROM 1 TO 1
OFFSET CHANGED FROM 1 TO 4
OFFSET CHANGED FROM 4 TO 4
OFFSET CHANGED FROM 4 TO 4
OFFSET CHANGED FROM 4 TO 1
OFFSET CHANGED FROM 1 TO 1
OFFSET CHANGED FROM 1 TO 1
OFFSET CHANGED FROM 1 TO 1
OFFSET CHANGED FROM 1 TO 2
OFFSET CHANGED FROM 2 TO 1
OFFSET CHANGED FROM 1 TO 1
OFFSET CHANGED FROM 1 TO 5
OFFSET CHANGED FROM 5 TO 3
OFFSET CHANGED FROM 3 TO 4
OFFSET CHANGED FROM 4 TO 4
OFFSET CHANGED FROM 4 TO 1
OFFSET CHANGED FROM 1 TO 1
Heartbeat CPU 0 instructions: 100000000 cycles: 58822036 heartbeat IPC: 1.15271 cumulative IPC: 1.17019 (Simulation time: 0 hr 2 min 52 sec) 
OFFSET CHANGED FROM 1 TO 5
OFFSET CHANGED FROM 5 TO 6
OFFSET CHANGED FROM 6 TO 4
OFFSET CHANGED FROM 4 TO 4
OFFSET CHANGED FROM 4 TO 3
OFFSET CHANGED FROM 3 TO 2
OFFSET CHANGED FROM 2 TO 5
OFFSET CHANGED FROM 5 TO 4
OFFSET CHANGED FROM 4 TO 2
OFFSET CHANGED FROM 2 TO 3
OFFSET CHANGED FROM 3 TO 5
OFFSET CHANGED FROM 5 TO 5
OFFSET CHANGED FROM 5 TO 6
OFFSET CHANGED FROM 6 TO 2
OFFSET CHANGED FROM 2 TO 4
OFFSET CHANGED FROM 4 TO 3
OFFSET CHANGED FROM 3 TO 3
OFFSET CHANGED FROM 3 TO 2
OFFSET CHANGED FROM 2 TO 10
OFFSET CHANGED FROM 10 TO 1
OFFSET CHANGED FROM 1 TO 1
OFFSET CHANGED FROM 1 TO 5
OFFSET CHANGED FROM 5 TO 4
OFFSET CHANGED FROM 4 TO 2
OFFSET CHANGED FROM 2 TO 1
OFFSET CHANGED FROM 1 TO 1
OFFSET CHANGED FROM 1 TO 1
OFFSET CHANGED FROM 1 TO 1
OFFSET CHANGED FROM 1 TO 1
OFFSET CHANGED FROM 1 TO 1
OFFSET CHANGED FROM 1 TO 1
OFFSET CHANGED FROM 1 TO 1
OFFSET CHANGED FROM 1 TO 5
OFFSET CHANGED FROM 5 TO 5
OFFSET CHANGED FROM 5 TO 1
OFFSET CHANGED FROM 1 TO 2
OFFSET CHANGED FROM 2 TO 2
OFFSET CHANGED FROM 2 TO 2
OFFSET CHANGED FROM 2 TO 2
OFFSET CHANGED FROM 2 TO 6
OFFSET CHANGED FROM 6 TO 5
OFFSET CHANGED FROM 5 TO 3
OFFSET CHANGED FROM 3 TO 4
OFFSET CHANGED FROM 4 TO 4
OFFSET CHANGED FROM 4 TO 4
OFFSET CHANGED FROM 4 TO 9
OFFSET CHANGED FROM 9 TO 9
OFFSET CHANGED FROM 9 TO 1
OFFSET CHANGED FROM 1 TO 1
OFFSET CHANGED FROM 1 TO 4
OFFSET CHANGED FROM 4 TO 5
OFFSET CHANGED FROM 5 TO 4
OFFSET CHANGED FROM 4 TO 1
OFFSET CHANGED FROM 1 TO 1
OFFSET CHANGED FROM 1 TO 1
OFFSET CHANGED FROM 1 TO 1
OFFSET CHANGED FROM 1 TO 1
OFFSET CHANGED FROM 1 TO 1
OFFSET CHANGED FROM 1 TO 1
OFFSET CHANGED FROM 1 TO 1
OFFSET CHANGED FROM 1 TO 3
OFFSET CHANGED FROM 3 TO 4
OFFSET CHANGED FROM 4 TO 7
OFFSET CHANGED FROM 7 TO 8
OFFSET CHANGED FROM 8 TO 2
OFFSET CHANGED FROM 2 TO 3
OFFSET CHANGED FROM 3 TO 2
OFFSET CHANGED FROM 2 TO 5
OFFSET CHANGED FROM 5 TO 5
OFFSET CHANGED FROM 5 TO 5
OFFSET CHANGED FROM 5 TO 6
OFFSET CHANGED FROM 6 TO 5
OFFSET CHANGED FROM 5 TO 4
OFFSET CHANGED FROM 4 TO 10
OFFSET CHANGED FROM 10 TO 5
OFFSET CHANGED FROM 5 TO 3
OFFSET CHANGED FROM 3 TO 5
OFFSET CHANGED FROM 5 TO 4
OFFSET CHANGED FROM 4 TO 3
OFFSET CHANGED FROM 3 TO 3
OFFSET CHANGED FROM 3 TO 2
OFFSET CHANGED FROM 2 TO 2
OFFSET CHANGED FROM 2 TO 5
Heartbeat CPU 0 instructions: 110000000 cycles: 67339833 heartbeat IPC: 1.17401 cumulative IPC: 1.17083 (Simulation time: 0 hr 3 min 8 sec) 
OFFSET CHANGED FROM 5 TO 8
OFFSET CHANGED FROM 8 TO 1
OFFSET CHANGED FROM 1 TO 4
OFFSET CHANGED FROM 4 TO 4
OFFSET CHANGED FROM 4 TO 4
OFFSET CHANGED FROM 4 TO 2
OFFSET CHANGED FROM 2 TO 1
OFFSET CHANGED FROM 1 TO 1
OFFSET CHANGED FROM 1 TO 1
OFFSET CHANGED FROM 1 TO 1
OFFSET CHANGED FROM 1 TO 1
OFFSET CHANGED FROM 1 TO 1
OFFSET CHANGED FROM 1 TO 6
OFFSET CHANGED FROM 6 TO 9
OFFSET CHANGED FROM 9 TO 5
OFFSET CHANGED FROM 5 TO 1
OFFSET CHANGED FROM 1 TO 1
OFFSET CHANGED FROM 1 TO 2
OFFSET CHANGED FROM 2 TO 3
OFFSET CHANGED FROM 3 TO 3
OFFSET CHANGED FROM 3 TO 3
OFFSET CHANGED FROM 3 TO 3
OFFSET CHANGED FROM 3 TO 3
OFFSET CHANGED FROM 3 TO 4
OFFSET CHANGED FROM 4 TO 6
OFFSET CHANGED FROM 6 TO 6
OFFSET CHANGED FROM 6 TO 6
OFFSET CHANGED FROM 6 TO 2
OFFSET CHANGED FROM 2 TO 2
OFFSET CHANGED FROM 2 TO 2
OFFSET CHANGED FROM 2 TO 2
OFFSET CHANGED FROM 2 TO 2
OFFSET CHANGED FROM 2 TO 2
OFFSET CHANGED FROM 2 TO 9
OFFSET CHANGED FROM 9 TO 5
OFFSET CHANGED FROM 5 TO 1
OFFSET CHANGED FROM 1 TO 5
OFFSET CHANGED FROM 5 TO 4
OFFSET CHANGED FROM 4 TO 4
OFFSET CHANGED FROM 4 TO 1
OFFSET CHANGED FROM 1 TO 1
OFFSET CHANGED FROM 1 TO 1
OFFSET CHANGED FROM 1 TO 2
OFFSET CHANGED FROM 2 TO 1
OFFSET CHANGED FROM 1 TO 1
OFFSET CHANGED FROM 1 TO 1
OFFSET CHANGED FROM 1 TO 5
OFFSET CHANGED FROM 5 TO 4
OFFSET CHANGED FROM 4 TO 3
OFFSET CHANGED FROM 3 TO 3
OFFSET CHANGED FROM 3 TO 1
OFFSET CHANGED FROM 1 TO 2
OFFSET CHANGED FROM 2 TO 3
OFFSET CHANGED FROM 3 TO 5
OFFSET CHANGED FROM 5 TO 5
OFFSET CHANGED FROM 5 TO 5
OFFSET CHANGED FROM 5 TO 4
OFFSET CHANGED FROM 4 TO 4
OFFSET CHANGED FROM 4 TO 4
OFFSET CHANGED FROM 4 TO 4
OFFSET CHANGED FROM 4 TO 4
OFFSET CHANGED FROM 4 TO 4
OFFSET CHANGED FROM 4 TO 4
OFFSET CHANGED FROM 4 TO 5
OFFSET CHANGED FROM 5 TO 7
OFFSET CHANGED FROM 7 TO 2
OFFSET CHANGED FROM 2 TO 2
OFFSET CHANGED FROM 2 TO 3
OFFSET CHANGED FROM 3 TO 2
OFFSET CHANGED FROM 2 TO 2
OFFSET CHANGED FROM 2 TO 8
OFFSET CHANGED FROM 8 TO 1
Heartbeat CPU 0 instructions: 120000001 cycles: 76217180 heartbeat IPC: 1.12646 cumulative IPC: 1.16428 (Simulation time: 0 hr 3 min 24 sec) 
OFFSET CHANGED FROM 1 TO 1
OFFSET CHANGED FROM 1 TO 5
OFFSET CHANGED FROM 5 TO 5
OFFSET CHANGED FROM 5 TO 4
OFFSET CHANGED FROM 4 TO 1
OFFSET CHANGED FROM 1 TO 1
OFFSET CHANGED FROM 1 TO 1
OFFSET CHANGED FROM 1 TO 2
OFFSET CHANGED FROM 2 TO 1
OFFSET CHANGED FROM 1 TO 1
OFFSET CHANGED FROM 1 TO 1
OFFSET CHANGED FROM 1 TO 3
OFFSET CHANGED FROM 3 TO 4
OFFSET CHANGED FROM 4 TO 4
OFFSET CHANGED FROM 4 TO 6
OFFSET CHANGED FROM 6 TO 3
OFFSET CHANGED FROM 3 TO 1
OFFSET CHANGED FROM 1 TO 2
OFFSET CHANGED FROM 2 TO 5
OFFSET CHANGED FROM 5 TO 7
OFFSET CHANGED FROM 7 TO 3
OFFSET CHANGED FROM 3 TO 5
OFFSET CHANGED FROM 5 TO 5
OFFSET CHANGED FROM 5 TO 4
OFFSET CHANGED FROM 4 TO 4
OFFSET CHANGED FROM 4 TO 9
OFFSET CHANGED FROM 9 TO 8
OFFSET CHANGED FROM 8 TO 3
OFFSET CHANGED FROM 3 TO 4
OFFSET CHANGED FROM 4 TO 5
OFFSET CHANGED FROM 5 TO 6
OFFSET CHANGED FROM 6 TO 1
OFFSET CHANGED FROM 1 TO 1
OFFSET CHANGED FROM 1 TO 1
OFFSET CHANGED FROM 1 TO 1
OFFSET CHANGED FROM 1 TO 1
OFFSET CHANGED FROM 1 TO 2
OFFSET CHANGED FROM 2 TO 1
OFFSET CHANGED FROM 1 TO 2
OFFSET CHANGED FROM 2 TO 3
OFFSET CHANGED FROM 3 TO 3
OFFSET CHANGED FROM 3 TO 6
OFFSET CHANGED FROM 6 TO 4
OFFSET CHANGED FROM 4 TO 3
OFFSET CHANGED FROM 3 TO 2
OFFSET CHANGED FROM 2 TO 2
OFFSET CHANGED FROM 2 TO 4
OFFSET CHANGED FROM 4 TO 4
OFFSET CHANGED FROM 4 TO 4
OFFSET CHANGED FROM 4 TO 5
OFFSET CHANGED FROM 5 TO 5
OFFSET CHANGED FROM 5 TO 4
OFFSET CHANGED FROM 4 TO 12
OFFSET CHANGED FROM 12 TO 5
OFFSET CHANGED FROM 5 TO 5
OFFSET CHANGED FROM 5 TO 5
OFFSET CHANGED FROM 5 TO 2
OFFSET CHANGED FROM 2 TO 2
OFFSET CHANGED FROM 2 TO 2
OFFSET CHANGED FROM 2 TO 2
OFFSET CHANGED FROM 2 TO 2
OFFSET CHANGED FROM 2 TO 9
OFFSET CHANGED FROM 9 TO 1
OFFSET CHANGED FROM 1 TO 1
OFFSET CHANGED FROM 1 TO 5
OFFSET CHANGED FROM 5 TO 4
OFFSET CHANGED FROM 4 TO 3
OFFSET CHANGED FROM 3 TO 1
OFFSET CHANGED FROM 1 TO 1
OFFSET CHANGED FROM 1 TO 1
OFFSET CHANGED FROM 1 TO 1
OFFSET CHANGED FROM 1 TO 1
OFFSET CHANGED FROM 1 TO 1
OFFSET CHANGED FROM 1 TO 2
OFFSET CHANGED FROM 2 TO 6
OFFSET CHANGED FROM 6 TO 6
Heartbeat CPU 0 instructions: 130000000 cycles: 84810545 heartbeat IPC: 1.16369 cumulative IPC: 1.1642 (Simulation time: 0 hr 3 min 39 sec) 
OFFSET CHANGED FROM 6 TO 5
OFFSET CHANGED FROM 5 TO 5
OFFSET CHANGED FROM 5 TO 2
OFFSET CHANGED FROM 2 TO 1
OFFSET CHANGED FROM 1 TO 3
OFFSET CHANGED FROM 3 TO 3
OFFSET CHANGED FROM 3 TO 3
OFFSET CHANGED FROM 3 TO 3
OFFSET CHANGED FROM 3 TO 3
OFFSET CHANGED FROM 3 TO 3
OFFSET CHANGED FROM 3 TO 6
OFFSET CHANGED FROM 6 TO 8
OFFSET CHANGED FROM 8 TO 4
OFFSET CHANGED FROM 4 TO 2
OFFSET CHANGED FROM 2 TO 2
OFFSET CHANGED FROM 2 TO 2
OFFSET CHANGED FROM 2 TO 2
OFFSET CHANGED FROM 2 TO 2
OFFSET CHANGED FROM 2 TO 2
OFFSET CHANGED FROM 2 TO 9
OFFSET CHANGED FROM 9 TO 1
OFFSET CHANGED FROM 1 TO 1
OFFSET CHANGED FROM 1 TO 4
OFFSET CHANGED FROM 4 TO 3
OFFSET CHANGED FROM 3 TO 3
OFFSET CHANGED FROM 3 TO 1
OFFSET CHANGED FROM 1 TO 1
OFFSET CHANGED FROM 1 TO 1
OFFSET CHANGED FROM 1 TO 1
OFFSET CHANGED FROM 1 TO 1
OFFSET CHANGED FROM 1 TO 1
OFFSET CHANGED FROM 1 TO 1
OFFSET CHANGED FROM 1 TO 1
OFFSET CHANGED FROM 1 TO 4
OFFSET CHANGED FROM 4 TO 4
OFFSET CHANGED FROM 4 TO 6
OFFSET CHANGED FROM 6 TO 4
OFFSET CHANGED FROM 4 TO 2
OFFSET CHANGED FROM 2 TO 1
OFFSET CHANGED FROM 1 TO 4
OFFSET CHANGED FROM 4 TO 5
OFFSET CHANGED FROM 5 TO 5
OFFSET CHANGED FROM 5 TO 4
OFFSET CHANGED FROM 4 TO 4
OFFSET CHANGED FROM 4 TO 4
OFFSET CHANGED FROM 4 TO 4
OFFSET CHANGED FROM 4 TO 3
OFFSET CHANGED FROM 3 TO 2
OFFSET CHANGED FROM 2 TO 3
OFFSET CHANGED FROM 3 TO 4
OFFSET CHANGED FROM 4 TO 8
OFFSET CHANGED FROM 8 TO 3
OFFSET CHANGED FROM 3 TO 2
OFFSET CHANGED FROM 2 TO 3
OFFSET CHANGED FROM 3 TO 3
OFFSET CHANGED FROM 3 TO 3
OFFSET CHANGED FROM 3 TO 8
OFFSET CHANGED FROM 8 TO 3
OFFSET CHANGED FROM 3 TO 1
OFFSET CHANGED FROM 1 TO 4
OFFSET CHANGED FROM 4 TO 4
OFFSET CHANGED FROM 4 TO 4
OFFSET CHANGED FROM 4 TO 1
OFFSET CHANGED FROM 1 TO 1
OFFSET CHANGED FROM 1 TO 1
OFFSET CHANGED FROM 1 TO 1
OFFSET CHANGED FROM 1 TO 1
OFFSET CHANGED FROM 1 TO 1
OFFSET CHANGED FROM 1 TO 1
OFFSET CHANGED FROM 1 TO 1
OFFSET CHANGED FROM 1 TO 5
OFFSET CHANGED FROM 5 TO 5
OFFSET CHANGED FROM 5 TO 5
OFFSET CHANGED FROM 5 TO 5
Heartbeat CPU 0 instructions: 140000001 cycles: 93504700 heartbeat IPC: 1.1502 cumulative IPC: 1.16263 (Simulation time: 0 hr 3 min 56 sec) 
OFFSET CHANGED FROM 5 TO 2
OFFSET CHANGED FROM 2 TO 1
OFFSET CHANGED FROM 1 TO 2
OFFSET CHANGED FROM 2 TO 4
OFFSET CHANGED FROM 4 TO 4
OFFSET CHANGED FROM 4 TO 4
OFFSET CHANGED FROM 4 TO 4
OFFSET CHANGED FROM 4 TO 3
OFFSET CHANGED FROM 3 TO 5
OFFSET CHANGED FROM 5 TO 8
OFFSET CHANGED FROM 8 TO 8
OFFSET CHANGED FROM 8 TO 2
OFFSET CHANGED FROM 2 TO 1
OFFSET CHANGED FROM 1 TO 4
OFFSET CHANGED FROM 4 TO 4
OFFSET CHANGED FROM 4 TO 4
OFFSET CHANGED FROM 4 TO 1
OFFSET CHANGED FROM 1 TO 1
OFFSET CHANGED FROM 1 TO 1
OFFSET CHANGED FROM 1 TO 1
OFFSET CHANGED FROM 1 TO 1
OFFSET CHANGED FROM 1 TO 1
OFFSET CHANGED FROM 1 TO 1
OFFSET CHANGED FROM 1 TO 1
OFFSET CHANGED FROM 1 TO 3
OFFSET CHANGED FROM 3 TO 4
OFFSET CHANGED FROM 4 TO 7
OFFSET CHANGED FROM 7 TO 11
OFFSET CHANGED FROM 11 TO 3
OFFSET CHANGED FROM 3 TO 3
OFFSET CHANGED FROM 3 TO 3
OFFSET CHANGED FROM 3 TO 3
OFFSET CHANGED FROM 3 TO 8
OFFSET CHANGED FROM 8 TO 6
OFFSET CHANGED FROM 6 TO 4
OFFSET CHANGED FROM 4 TO 4
OFFSET CHANGED FROM 4 TO 4
OFFSET CHANGED FROM 4 TO 9
OFFSET CHANGED FROM 9 TO 4
OFFSET CHANGED FROM 4 TO 5
OFFSET CHANGED FROM 5 TO 4
OFFSET CHANGED FROM 4 TO 3
OFFSET CHANGED FROM 3 TO 2
OFFSET CHANGED FROM 2 TO 2
OFFSET CHANGED FROM 2 TO 2
OFFSET CHANGED FROM 2 TO 2
OFFSET CHANGED FROM 2 TO 9
OFFSET CHANGED FROM 9 TO 1
OFFSET CHANGED FROM 1 TO 1
OFFSET CHANGED FROM 1 TO 5
OFFSET CHANGED FROM 5 TO 4
OFFSET CHANGED FROM 4 TO 1
OFFSET CHANGED FROM 1 TO 1
OFFSET CHANGED FROM 1 TO 1
OFFSET CHANGED FROM 1 TO 1
OFFSET CHANGED FROM 1 TO 1
OFFSET CHANGED FROM 1 TO 1
OFFSET CHANGED FROM 1 TO 2
OFFSET CHANGED FROM 2 TO 2
OFFSET CHANGED FROM 2 TO 8
OFFSET CHANGED FROM 8 TO 6
OFFSET CHANGED FROM 6 TO 6
OFFSET CHANGED FROM 6 TO 2
OFFSET CHANGED FROM 2 TO 3
Heartbeat CPU 0 instructions: 150000000 cycles: 102386005 heartbeat IPC: 1.12596 cumulative IPC: 1.15886 (Simulation time: 0 hr 4 min 11 sec) 
OFFSET CHANGED FROM 3 TO 3
OFFSET CHANGED FROM 3 TO 3
OFFSET CHANGED FROM 3 TO 3
OFFSET CHANGED FROM 3 TO 5
OFFSET CHANGED FROM 5 TO 5
OFFSET CHANGED FROM 5 TO 3
OFFSET CHANGED FROM 3 TO 8
OFFSET CHANGED FROM 8 TO 9
OFFSET CHANGED FROM 9 TO 15
OFFSET CHANGED FROM 15 TO 6
OFFSET CHANGED FROM 6 TO 3
OFFSET CHANGED FROM 3 TO 2
OFFSET CHANGED FROM 2 TO 3
OFFSET CHANGED FROM 3 TO 2
OFFSET CHANGED FROM 2 TO 3
OFFSET CHANGED FROM 3 TO 6
OFFSET CHANGED FROM 6 TO 3
OFFSET CHANGED FROM 3 TO 1
OFFSET CHANGED FROM 1 TO 5
OFFSET CHANGED FROM 5 TO 4
OFFSET CHANGED FROM 4 TO 1
OFFSET CHANGED FROM 1 TO 1
OFFSET CHANGED FROM 1 TO 1
OFFSET CHANGED FROM 1 TO 1
OFFSET CHANGED FROM 1 TO 1
OFFSET CHANGED FROM 1 TO 1
OFFSET CHANGED FROM 1 TO 1
OFFSET CHANGED FROM 1 TO 2
OFFSET CHANGED FROM 2 TO 2
OFFSET CHANGED FROM 2 TO 5
OFFSET CHANGED FROM 5 TO 4
OFFSET CHANGED FROM 4 TO 4
OFFSET CHANGED FROM 4 TO 1
OFFSET CHANGED FROM 1 TO 3
OFFSET CHANGED FROM 3 TO 3
OFFSET CHANGED FROM 3 TO 5
OFFSET CHANGED FROM 5 TO 5
OFFSET CHANGED FROM 5 TO 4
OFFSET CHANGED FROM 4 TO 4
OFFSET CHANGED FROM 4 TO 3
OFFSET CHANGED FROM 3 TO 3
OFFSET CHANGED FROM 3 TO 3
OFFSET CHANGED FROM 3 TO 2
OFFSET CHANGED FROM 2 TO 5
OFFSET CHANGED FROM 5 TO 5
OFFSET CHANGED FROM 5 TO 5
OFFSET CHANGED FROM 5 TO 5
OFFSET CHANGED FROM 5 TO 2
OFFSET CHANGED FROM 2 TO 2
OFFSET CHANGED FROM 2 TO 2
OFFSET CHANGED FROM 2 TO 2
OFFSET CHANGED FROM 2 TO 8
OFFSET CHANGED FROM 8 TO 5
OFFSET CHANGED FROM 5 TO 3
OFFSET CHANGED FROM 3 TO 4
OFFSET CHANGED FROM 4 TO 4
OFFSET CHANGED FROM 4 TO 4
OFFSET CHANGED FROM 4 TO 1
OFFSET CHANGED FROM 1 TO 1
OFFSET CHANGED FROM 1 TO 1
OFFSET CHANGED FROM 1 TO 1
OFFSET CHANGED FROM 1 TO 1
OFFSET CHANGED FROM 1 TO 1
OFFSET CHANGED FROM 1 TO 1
OFFSET CHANGED FROM 1 TO 2
OFFSET CHANGED FROM 2 TO 5
OFFSET CHANGED FROM 5 TO 4
OFFSET CHANGED FROM 4 TO 3
OFFSET CHANGED FROM 3 TO 2
OFFSET CHANGED FROM 2 TO 2
OFFSET CHANGED FROM 2 TO 1
OFFSET CHANGED FROM 1 TO 3
OFFSET CHANGED FROM 3 TO 4
OFFSET CHANGED FROM 4 TO 5
OFFSET CHANGED FROM 5 TO 4
OFFSET CHANGED FROM 4 TO 4
OFFSET CHANGED FROM 4 TO 5
OFFSET CHANGED FROM 5 TO 4
OFFSET CHANGED FROM 4 TO 7
OFFSET CHANGED FROM 7 TO 9
Heartbeat CPU 0 instructions: 160000000 cycles: 111251230 heartbeat IPC: 1.128 cumulative IPC: 1.15598 (Simulation time: 0 hr 4 min 27 sec) 
OFFSET CHANGED FROM 9 TO 11
OFFSET CHANGED FROM 11 TO 1
OFFSET CHANGED FROM 1 TO 6
OFFSET CHANGED FROM 6 TO 7
OFFSET CHANGED FROM 7 TO 6
OFFSET CHANGED FROM 6 TO 2
OFFSET CHANGED FROM 2 TO 1
OFFSET CHANGED FROM 1 TO 1
OFFSET CHANGED FROM 1 TO 1
OFFSET CHANGED FROM 1 TO 1
OFFSET CHANGED FROM 1 TO 1
OFFSET CHANGED FROM 1 TO 1
OFFSET CHANGED FROM 1 TO 3
OFFSET CHANGED FROM 3 TO 4
OFFSET CHANGED FROM 4 TO 4
OFFSET CHANGED FROM 4 TO 6
OFFSET CHANGED FROM 6 TO 6
OFFSET CHANGED FROM 6 TO 3
OFFSET CHANGED FROM 3 TO 2
OFFSET CHANGED FROM 2 TO 2
OFFSET CHANGED FROM 2 TO 4
OFFSET CHANGED FROM 4 TO 5
OFFSET CHANGED FROM 5 TO 4
OFFSET CHANGED FROM 4 TO 4
OFFSET CHANGED FROM 4 TO 4
OFFSET CHANGED FROM 4 TO 4
OFFSET CHANGED FROM 4 TO 10
OFFSET CHANGED FROM 10 TO 7
OFFSET CHANGED FROM 7 TO 4
OFFSET CHANGED FROM 4 TO 7
OFFSET CHANGED FROM 7 TO 11
OFFSET CHANGED FROM 11 TO 2
OFFSET CHANGED FROM 2 TO 2
OFFSET CHANGED FROM 2 TO 2
OFFSET CHANGED FROM 2 TO 2
OFFSET CHANGED FROM 2 TO 5
OFFSET CHANGED FROM 5 TO 1
OFFSET CHANGED FROM 1 TO 1
OFFSET CHANGED FROM 1 TO 4
OFFSET CHANGED FROM 4 TO 5
OFFSET CHANGED FROM 5 TO 4
OFFSET CHANGED FROM 4 TO 1
OFFSET CHANGED FROM 1 TO 1
OFFSET CHANGED FROM 1 TO 1
OFFSET CHANGED FROM 1 TO 1
OFFSET CHANGED FROM 1 TO 1
OFFSET CHANGED FROM 1 TO 1
OFFSET CHANGED FROM 1 TO 1
OFFSET CHANGED FROM 1 TO 1
OFFSET CHANGED FROM 1 TO 6
OFFSET CHANGED FROM 6 TO 2
OFFSET CHANGED FROM 2 TO 2
OFFSET CHANGED FROM 2 TO 2
OFFSET CHANGED FROM 2 TO 1
OFFSET CHANGED FROM 1 TO 3
OFFSET CHANGED FROM 3 TO 3
OFFSET CHANGED FROM 3 TO 3
OFFSET CHANGED FROM 3 TO 4
OFFSET CHANGED FROM 4 TO 4
OFFSET CHANGED FROM 4 TO 4
OFFSET CHANGED FROM 4 TO 5
OFFSET CHANGED FROM 5 TO 14
OFFSET CHANGED FROM 14 TO 6
OFFSET CHANGED FROM 6 TO 6
OFFSET CHANGED FROM 6 TO 6
OFFSET CHANGED FROM 6 TO 4
OFFSET CHANGED FROM 4 TO 3
OFFSET CHANGED FROM 3 TO 3
OFFSET CHANGED FROM 3 TO 2
OFFSET CHANGED FROM 2 TO 5
OFFSET CHANGED FROM 5 TO 1
Heartbeat CPU 0 instructions: 170000002 cycles: 120322605 heartbeat IPC: 1.10237 cumulative IPC: 1.15132 (Simulation time: 0 hr 4 min 43 sec) 
OFFSET CHANGED FROM 1 TO 1
OFFSET CHANGED FROM 1 TO 4
OFFSET CHANGED FROM 4 TO 4
OFFSET CHANGED FROM 4 TO 3
OFFSET CHANGED FROM 3 TO 1
OFFSET CHANGED FROM 1 TO 1
OFFSET CHANGED FROM 1 TO 1
OFFSET CHANGED FROM 1 TO 2
OFFSET CHANGED FROM 2 TO 1
OFFSET CHANGED FROM 1 TO 1
OFFSET CHANGED FROM 1 TO 1
OFFSET CHANGED FROM 1 TO 1
OFFSET CHANGED FROM 1 TO 6
OFFSET CHANGED FROM 6 TO 5
OFFSET CHANGED FROM 5 TO 2
OFFSET CHANGED FROM 2 TO 1
OFFSET CHANGED FROM 1 TO 2
OFFSET CHANGED FROM 2 TO 1
OFFSET CHANGED FROM 1 TO 4
OFFSET CHANGED FROM 4 TO 5
OFFSET CHANGED FROM 5 TO 4
OFFSET CHANGED FROM 4 TO 3
OFFSET CHANGED FROM 3 TO 2
OFFSET CHANGED FROM 2 TO 3
OFFSET CHANGED FROM 3 TO 2
OFFSET CHANGED FROM 2 TO 3
OFFSET CHANGED FROM 3 TO 4
OFFSET CHANGED FROM 4 TO 4
OFFSET CHANGED FROM 4 TO 4
OFFSET CHANGED FROM 4 TO 4
OFFSET CHANGED FROM 4 TO 2
OFFSET CHANGED FROM 2 TO 3
OFFSET CHANGED FROM 3 TO 2
OFFSET CHANGED FROM 2 TO 2
OFFSET CHANGED FROM 2 TO 3
OFFSET CHANGED FROM 3 TO 6
OFFSET CHANGED FROM 6 TO 1
OFFSET CHANGED FROM 1 TO 4
OFFSET CHANGED FROM 4 TO 5
OFFSET CHANGED FROM 5 TO 4
OFFSET CHANGED FROM 4 TO 1
OFFSET CHANGED FROM 1 TO 1
OFFSET CHANGED FROM 1 TO 1
OFFSET CHANGED FROM 1 TO 1
OFFSET CHANGED FROM 1 TO 1
OFFSET CHANGED FROM 1 TO 1
OFFSET CHANGED FROM 1 TO 1
OFFSET CHANGED FROM 1 TO 1
OFFSET CHANGED FROM 1 TO 6
OFFSET CHANGED FROM 6 TO 5
OFFSET CHANGED FROM 5 TO 4
OFFSET CHANGED FROM 4 TO 4
OFFSET CHANGED FROM 4 TO 3
OFFSET CHANGED FROM 3 TO 2
OFFSET CHANGED FROM 2 TO 3
OFFSET CHANGED FROM 3 TO 4
OFFSET CHANGED FROM 4 TO 4
OFFSET CHANGED FROM 4 TO 3
OFFSET CHANGED FROM 3 TO 4
OFFSET CHANGED FROM 4 TO 3
OFFSET CHANGED FROM 3 TO 4
OFFSET CHANGED FROM 4 TO 12
OFFSET CHANGED FROM 12 TO 11
OFFSET CHANGED FROM 11 TO 2
OFFSET CHANGED FROM 2 TO 4
OFFSET CHANGED FROM 4 TO 4
OFFSET CHANGED FROM 4 TO 5
OFFSET CHANGED FROM 5 TO 1
OFFSET CHANGED FROM 1 TO 1
OFFSET CHANGED FROM 1 TO 1
OFFSET CHANGED FROM 1 TO 1
OFFSET CHANGED FROM 1 TO 1
OFFSET CHANGED FROM 1 TO 1
OFFSET CHANGED FROM 1 TO 1
OFFSET CHANGED FROM 1 TO 1
Heartbeat CPU 0 instructions: 180000002 cycles: 128964426 heartbeat IPC: 1.15716 cumulative IPC: 1.15176 (Simulation time: 0 hr 4 min 58 sec) 
OFFSET CHANGED FROM 1 TO 3
OFFSET CHANGED FROM 3 TO 5
OFFSET CHANGED FROM 5 TO 10
OFFSET CHANGED FROM 10 TO 3
OFFSET CHANGED FROM 3 TO 2
OFFSET CHANGED FROM 2 TO 2
OFFSET CHANGED FROM 2 TO 2
OFFSET CHANGED FROM 2 TO 7
OFFSET CHANGED FROM 7 TO 9
OFFSET CHANGED FROM 9 TO 4
OFFSET CHANGED FROM 4 TO 3
OFFSET CHANGED FROM 3 TO 4
OFFSET CHANGED FROM 4 TO 6
OFFSET CHANGED FROM 6 TO 6
OFFSET CHANGED FROM 6 TO 3
OFFSET CHANGED FROM 3 TO 5
OFFSET CHANGED FROM 5 TO 7
OFFSET CHANGED FROM 7 TO 2
OFFSET CHANGED FROM 2 TO 3
OFFSET CHANGED FROM 3 TO 3
OFFSET CHANGED FROM 3 TO 3
OFFSET CHANGED FROM 3 TO 3
OFFSET CHANGED FROM 3 TO 6
OFFSET CHANGED FROM 6 TO 3
OFFSET CHANGED FROM 3 TO 5
OFFSET CHANGED FROM 5 TO 4
OFFSET CHANGED FROM 4 TO 7
OFFSET CHANGED FROM 7 TO 1
OFFSET CHANGED FROM 1 TO 1
OFFSET CHANGED FROM 1 TO 1
OFFSET CHANGED FROM 1 TO 1
OFFSET CHANGED FROM 1 TO 1
OFFSET CHANGED FROM 1 TO 1
OFFSET CHANGED FROM 1 TO 1
OFFSET CHANGED FROM 1 TO 1
OFFSET CHANGED FROM 1 TO 3
OFFSET CHANGED FROM 3 TO 7
OFFSET CHANGED FROM 7 TO 4
OFFSET CHANGED FROM 4 TO 2
OFFSET CHANGED FROM 2 TO 1
OFFSET CHANGED FROM 1 TO 2
OFFSET CHANGED FROM 2 TO 3
OFFSET CHANGED FROM 3 TO 3
OFFSET CHANGED FROM 3 TO 3
OFFSET CHANGED FROM 3 TO 3
OFFSET CHANGED FROM 3 TO 4
OFFSET CHANGED FROM 4 TO 4
OFFSET CHANGED FROM 4 TO 7
OFFSET CHANGED FROM 7 TO 7
OFFSET CHANGED FROM 7 TO 12
OFFSET CHANGED FROM 12 TO 2
OFFSET CHANGED FROM 2 TO 2
OFFSET CHANGED FROM 2 TO 3
OFFSET CHANGED FROM 3 TO 2
OFFSET CHANGED FROM 2 TO 2
OFFSET CHANGED FROM 2 TO 8
OFFSET CHANGED FROM 8 TO 5
OFFSET CHANGED FROM 5 TO 3
OFFSET CHANGED FROM 3 TO 4
OFFSET CHANGED FROM 4 TO 5
OFFSET CHANGED FROM 5 TO 4
OFFSET CHANGED FROM 4 TO 1
OFFSET CHANGED FROM 1 TO 1
OFFSET CHANGED FROM 1 TO 1
OFFSET CHANGED FROM 1 TO 1
OFFSET CHANGED FROM 1 TO 1
OFFSET CHANGED FROM 1 TO 1
OFFSET CHANGED FROM 1 TO 1
OFFSET CHANGED FROM 1 TO 1
OFFSET CHANGED FROM 1 TO 6
OFFSET CHANGED FROM 6 TO 8
OFFSET CHANGED FROM 8 TO 4
OFFSET CHANGED FROM 4 TO 1
Heartbeat CPU 0 instructions: 190000001 cycles: 138033926 heartbeat IPC: 1.1026 cumulative IPC: 1.14811 (Simulation time: 0 hr 5 min 14 sec) 
OFFSET CHANGED FROM 1 TO 1
OFFSET CHANGED FROM 1 TO 2
OFFSET CHANGED FROM 2 TO 6
OFFSET CHANGED FROM 6 TO 6
OFFSET CHANGED FROM 6 TO 5
OFFSET CHANGED FROM 5 TO 4
OFFSET CHANGED FROM 4 TO 4
OFFSET CHANGED FROM 4 TO 5
OFFSET CHANGED FROM 5 TO 5
OFFSET CHANGED FROM 5 TO 4
OFFSET CHANGED FROM 4 TO 3
OFFSET CHANGED FROM 3 TO 4
OFFSET CHANGED FROM 4 TO 6
OFFSET CHANGED FROM 6 TO 7
PREFETCHING INTO L2 w/ PREFETCH SCORE 31 (MSHR OCC = 28)
PREFETCHING INTO L2 w/ PREFETCH SCORE 31 (MSHR OCC = 29)
OFFSET CHANGED FROM 7 TO 4
OFFSET CHANGED FROM 4 TO 2
OFFSET CHANGED FROM 2 TO 2
OFFSET CHANGED FROM 2 TO 2
OFFSET CHANGED FROM 2 TO 2
OFFSET CHANGED FROM 2 TO 9
OFFSET CHANGED FROM 9 TO 1
OFFSET CHANGED FROM 1 TO 1
OFFSET CHANGED FROM 1 TO 4
OFFSET CHANGED FROM 4 TO 5
OFFSET CHANGED FROM 5 TO 4
OFFSET CHANGED FROM 4 TO 1
OFFSET CHANGED FROM 1 TO 1
OFFSET CHANGED FROM 1 TO 1
OFFSET CHANGED FROM 1 TO 2
OFFSET CHANGED FROM 2 TO 1
OFFSET CHANGED FROM 1 TO 2
OFFSET CHANGED FROM 2 TO 1
OFFSET CHANGED FROM 1 TO 4
OFFSET CHANGED FROM 4 TO 5
OFFSET CHANGED FROM 5 TO 3
OFFSET CHANGED FROM 3 TO 4
OFFSET CHANGED FROM 4 TO 2
OFFSET CHANGED FROM 2 TO 1
OFFSET CHANGED FROM 1 TO 1
OFFSET CHANGED FROM 1 TO 4
OFFSET CHANGED FROM 4 TO 5
OFFSET CHANGED FROM 5 TO 4
OFFSET CHANGED FROM 4 TO 4
OFFSET CHANGED FROM 4 TO 4
OFFSET CHANGED FROM 4 TO 4
OFFSET CHANGED FROM 4 TO 4
OFFSET CHANGED FROM 4 TO 9
OFFSET CHANGED FROM 9 TO 8
OFFSET CHANGED FROM 8 TO 1
OFFSET CHANGED FROM 1 TO 4
OFFSET CHANGED FROM 4 TO 5
OFFSET CHANGED FROM 5 TO 6
OFFSET CHANGED FROM 6 TO 2
OFFSET CHANGED FROM 2 TO 1
OFFSET CHANGED FROM 1 TO 1
OFFSET CHANGED FROM 1 TO 1
OFFSET CHANGED FROM 1 TO 1
OFFSET CHANGED FROM 1 TO 2
OFFSET CHANGED FROM 2 TO 1
OFFSET CHANGED FROM 1 TO 3
OFFSET CHANGED FROM 3 TO 3
OFFSET CHANGED FROM 3 TO 6
OFFSET CHANGED FROM 6 TO 7
OFFSET CHANGED FROM 7 TO 3
Heartbeat CPU 0 instructions: 200000000 cycles: 147024329 heartbeat IPC: 1.1123 cumulative IPC: 1.14565 (Simulation time: 0 hr 5 min 30 sec) 
OFFSET CHANGED FROM 3 TO 1
OFFSET CHANGED FROM 1 TO 3
OFFSET CHANGED FROM 3 TO 2
OFFSET CHANGED FROM 2 TO 6
OFFSET CHANGED FROM 6 TO 9
OFFSET CHANGED FROM 9 TO 5
OFFSET CHANGED FROM 5 TO 4
OFFSET CHANGED FROM 4 TO 4
OFFSET CHANGED FROM 4 TO 8
OFFSET CHANGED FROM 8 TO 11
OFFSET CHANGED FROM 11 TO 7
OFFSET CHANGED FROM 7 TO 5
OFFSET CHANGED FROM 5 TO 6
OFFSET CHANGED FROM 6 TO 8
OFFSET CHANGED FROM 8 TO 2
OFFSET CHANGED FROM 2 TO 3
OFFSET CHANGED FROM 3 TO 2
OFFSET CHANGED FROM 2 TO 5
OFFSET CHANGED FROM 5 TO 5
OFFSET CHANGED FROM 5 TO 1
OFFSET CHANGED FROM 1 TO 5
OFFSET CHANGED FROM 5 TO 4
OFFSET CHANGED FROM 4 TO 5
OFFSET CHANGED FROM 5 TO 1
OFFSET CHANGED FROM 1 TO 1
OFFSET CHANGED FROM 1 TO 1
OFFSET CHANGED FROM 1 TO 1
OFFSET CHANGED FROM 1 TO 1
OFFSET CHANGED FROM 1 TO 2
OFFSET CHANGED FROM 2 TO 3
OFFSET CHANGED FROM 3 TO 2
OFFSET CHANGED FROM 2 TO 7
OFFSET CHANGED FROM 7 TO 4
OFFSET CHANGED FROM 4 TO 3
OFFSET CHANGED FROM 3 TO 1
OFFSET CHANGED FROM 1 TO 2
OFFSET CHANGED FROM 2 TO 5
OFFSET CHANGED FROM 5 TO 4
OFFSET CHANGED FROM 4 TO 3
OFFSET CHANGED FROM 3 TO 3
OFFSET CHANGED FROM 3 TO 3
OFFSET CHANGED FROM 3 TO 4
OFFSET CHANGED FROM 4 TO 4
OFFSET CHANGED FROM 4 TO 6
OFFSET CHANGED FROM 6 TO 5
OFFSET CHANGED FROM 5 TO 6
OFFSET CHANGED FROM 6 TO 2
OFFSET CHANGED FROM 2 TO 3
OFFSET CHANGED FROM 3 TO 3
OFFSET CHANGED FROM 3 TO 2
OFFSET CHANGED FROM 2 TO 4
OFFSET CHANGED FROM 4 TO 8
OFFSET CHANGED FROM 8 TO 1
OFFSET CHANGED FROM 1 TO 1
OFFSET CHANGED FROM 1 TO 4
OFFSET CHANGED FROM 4 TO 4
OFFSET CHANGED FROM 4 TO 5
OFFSET CHANGED FROM 5 TO 1
OFFSET CHANGED FROM 1 TO 1
OFFSET CHANGED FROM 1 TO 2
OFFSET CHANGED FROM 2 TO 2
OFFSET CHANGED FROM 2 TO 1
OFFSET CHANGED FROM 1 TO 1
OFFSET CHANGED FROM 1 TO 1
OFFSET CHANGED FROM 1 TO 3
OFFSET CHANGED FROM 3 TO 4
OFFSET CHANGED FROM 4 TO 3
OFFSET CHANGED FROM 3 TO 2
OFFSET CHANGED FROM 2 TO 3
OFFSET CHANGED FROM 3 TO 5
OFFSET CHANGED FROM 5 TO 1
OFFSET CHANGED FROM 1 TO 4
OFFSET CHANGED FROM 4 TO 6
OFFSET CHANGED FROM 6 TO 4
OFFSET CHANGED FROM 4 TO 2
OFFSET CHANGED FROM 2 TO 3
Heartbeat CPU 0 instructions: 210000003 cycles: 156055419 heartbeat IPC: 1.10729 cumulative IPC: 1.14317 (Simulation time: 0 hr 5 min 46 sec) 
OFFSET CHANGED FROM 3 TO 4
OFFSET CHANGED FROM 4 TO 3
OFFSET CHANGED FROM 3 TO 3
OFFSET CHANGED FROM 3 TO 4
OFFSET CHANGED FROM 4 TO 4
OFFSET CHANGED FROM 4 TO 7
OFFSET CHANGED FROM 7 TO 7
OFFSET CHANGED FROM 7 TO 2
OFFSET CHANGED FROM 2 TO 2
OFFSET CHANGED FROM 2 TO 3
OFFSET CHANGED FROM 3 TO 2
OFFSET CHANGED FROM 2 TO 2
OFFSET CHANGED FROM 2 TO 6
OFFSET CHANGED FROM 6 TO 1
OFFSET CHANGED FROM 1 TO 1
OFFSET CHANGED FROM 1 TO 4
OFFSET CHANGED FROM 4 TO 4
OFFSET CHANGED FROM 4 TO 4
OFFSET CHANGED FROM 4 TO 2
OFFSET CHANGED FROM 2 TO 1
OFFSET CHANGED FROM 1 TO 1
OFFSET CHANGED FROM 1 TO 2
OFFSET CHANGED FROM 2 TO 1
OFFSET CHANGED FROM 1 TO 1
OFFSET CHANGED FROM 1 TO 2
OFFSET CHANGED FROM 2 TO 2
OFFSET CHANGED FROM 2 TO 8
OFFSET CHANGED FROM 8 TO 5
OFFSET CHANGED FROM 5 TO 6
OFFSET CHANGED FROM 6 TO 2
OFFSET CHANGED FROM 2 TO 1
OFFSET CHANGED FROM 1 TO 1
OFFSET CHANGED FROM 1 TO 3
OFFSET CHANGED FROM 3 TO 5
OFFSET CHANGED FROM 5 TO 4
OFFSET CHANGED FROM 4 TO 4
OFFSET CHANGED FROM 4 TO 4
OFFSET CHANGED FROM 4 TO 4
OFFSET CHANGED FROM 4 TO 4
OFFSET CHANGED FROM 4 TO 9
OFFSET CHANGED FROM 9 TO 9
OFFSET CHANGED FROM 9 TO 1
OFFSET CHANGED FROM 1 TO 7
OFFSET CHANGED FROM 7 TO 4
OFFSET CHANGED FROM 4 TO 6
OFFSET CHANGED FROM 6 TO 4
OFFSET CHANGED FROM 4 TO 1
OFFSET CHANGED FROM 1 TO 1
OFFSET CHANGED FROM 1 TO 1
OFFSET CHANGED FROM 1 TO 2
OFFSET CHANGED FROM 2 TO 2
OFFSET CHANGED FROM 2 TO 2
OFFSET CHANGED FROM 2 TO 1
OFFSET CHANGED FROM 1 TO 3
OFFSET CHANGED FROM 3 TO 4
OFFSET CHANGED FROM 4 TO 6
OFFSET CHANGED FROM 6 TO 8
OFFSET CHANGED FROM 8 TO 3
OFFSET CHANGED FROM 3 TO 3
OFFSET CHANGED FROM 3 TO 2
OFFSET CHANGED FROM 2 TO 4
OFFSET CHANGED FROM 4 TO 8
OFFSET CHANGED FROM 8 TO 9
OFFSET CHANGED FROM 9 TO 4
OFFSET CHANGED FROM 4 TO 4
OFFSET CHANGED FROM 4 TO 4
OFFSET CHANGED FROM 4 TO 6
OFFSET CHANGED FROM 6 TO 4
OFFSET CHANGED FROM 4 TO 5
OFFSET CHANGED FROM 5 TO 6
OFFSET CHANGED FROM 6 TO 3
OFFSET CHANGED FROM 3 TO 2
OFFSET CHANGED FROM 2 TO 2
OFFSET CHANGED FROM 2 TO 2
OFFSET CHANGED FROM 2 TO 2
OFFSET CHANGED FROM 2 TO 9
OFFSET CHANGED FROM 9 TO 1
Heartbeat CPU 0 instructions: 220000000 cycles: 165058642 heartbeat IPC: 1.11071 cumulative IPC: 1.14121 (Simulation time: 0 hr 6 min 2 sec) 
OFFSET CHANGED FROM 1 TO 1
OFFSET CHANGED FROM 1 TO 4
OFFSET CHANGED FROM 4 TO 6
OFFSET CHANGED FROM 6 TO 6
OFFSET CHANGED FROM 6 TO 1
OFFSET CHANGED FROM 1 TO 1
OFFSET CHANGED FROM 1 TO 1
OFFSET CHANGED FROM 1 TO 1
OFFSET CHANGED FROM 1 TO 1
OFFSET CHANGED FROM 1 TO 1
OFFSET CHANGED FROM 1 TO 1
OFFSET CHANGED FROM 1 TO 6
OFFSET CHANGED FROM 6 TO 6
OFFSET CHANGED FROM 6 TO 6
OFFSET CHANGED FROM 6 TO 2
OFFSET CHANGED FROM 2 TO 1
OFFSET CHANGED FROM 1 TO 3
OFFSET CHANGED FROM 3 TO 4
OFFSET CHANGED FROM 4 TO 3
OFFSET CHANGED FROM 3 TO 3
OFFSET CHANGED FROM 3 TO 4
OFFSET CHANGED FROM 4 TO 3
OFFSET CHANGED FROM 3 TO 5
OFFSET CHANGED FROM 5 TO 8
OFFSET CHANGED FROM 8 TO 8
OFFSET CHANGED FROM 8 TO 9
OFFSET CHANGED FROM 9 TO 2
OFFSET CHANGED FROM 2 TO 2
OFFSET CHANGED FROM 2 TO 2
OFFSET CHANGED FROM 2 TO 2
OFFSET CHANGED FROM 2 TO 2
OFFSET CHANGED FROM 2 TO 9
OFFSET CHANGED FROM 9 TO 5
OFFSET CHANGED FROM 5 TO 3
OFFSET CHANGED FROM 3 TO 5
OFFSET CHANGED FROM 5 TO 6
OFFSET CHANGED FROM 6 TO 6
OFFSET CHANGED FROM 6 TO 1
OFFSET CHANGED FROM 1 TO 1
OFFSET CHANGED FROM 1 TO 1
OFFSET CHANGED FROM 1 TO 1
OFFSET CHANGED FROM 1 TO 2
OFFSET CHANGED FROM 2 TO 1
OFFSET CHANGED FROM 1 TO 3
OFFSET CHANGED FROM 3 TO 2
OFFSET CHANGED FROM 2 TO 6
OFFSET CHANGED FROM 6 TO 5
OFFSET CHANGED FROM 5 TO 2
OFFSET CHANGED FROM 2 TO 1
OFFSET CHANGED FROM 1 TO 2
OFFSET CHANGED FROM 2 TO 3
OFFSET CHANGED FROM 3 TO 5
OFFSET CHANGED FROM 5 TO 4
OFFSET CHANGED FROM 4 TO 5
OFFSET CHANGED FROM 5 TO 5
OFFSET CHANGED FROM 5 TO 4
OFFSET CHANGED FROM 4 TO 4
OFFSET CHANGED FROM 4 TO 4
OFFSET CHANGED FROM 4 TO 4
OFFSET CHANGED FROM 4 TO 2
OFFSET CHANGED FROM 2 TO 4
OFFSET CHANGED FROM 4 TO 7
OFFSET CHANGED FROM 7 TO 6
OFFSET CHANGED FROM 6 TO 2
OFFSET CHANGED FROM 2 TO 3
OFFSET CHANGED FROM 3 TO 3
OFFSET CHANGED FROM 3 TO 3
OFFSET CHANGED FROM 3 TO 6
OFFSET CHANGED FROM 6 TO 8
OFFSET CHANGED FROM 8 TO 1
OFFSET CHANGED FROM 1 TO 4
OFFSET CHANGED FROM 4 TO 4
OFFSET CHANGED FROM 4 TO 4
OFFSET CHANGED FROM 4 TO 1
OFFSET CHANGED FROM 1 TO 1
Heartbeat CPU 0 instructions: 230000003 cycles: 174324675 heartbeat IPC: 1.07921 cumulative IPC: 1.13758 (Simulation time: 0 hr 6 min 18 sec) 
OFFSET CHANGED FROM 1 TO 1
OFFSET CHANGED FROM 1 TO 1
OFFSET CHANGED FROM 1 TO 1
OFFSET CHANGED FROM 1 TO 1
OFFSET CHANGED FROM 1 TO 2
OFFSET CHANGED FROM 2 TO 2
OFFSET CHANGED FROM 2 TO 8
OFFSET CHANGED FROM 8 TO 5
OFFSET CHANGED FROM 5 TO 3
OFFSET CHANGED FROM 3 TO 2
OFFSET CHANGED FROM 2 TO 2
OFFSET CHANGED FROM 2 TO 1
OFFSET CHANGED FROM 1 TO 3
OFFSET CHANGED FROM 3 TO 5
OFFSET CHANGED FROM 5 TO 4
OFFSET CHANGED FROM 4 TO 4
OFFSET CHANGED FROM 4 TO 4
OFFSET CHANGED FROM 4 TO 5
OFFSET CHANGED FROM 5 TO 5
OFFSET CHANGED FROM 5 TO 9
OFFSET CHANGED FROM 9 TO 8
OFFSET CHANGED FROM 8 TO 1
OFFSET CHANGED FROM 1 TO 4
OFFSET CHANGED FROM 4 TO 4
OFFSET CHANGED FROM 4 TO 4
OFFSET CHANGED FROM 4 TO 1
OFFSET CHANGED FROM 1 TO 1
OFFSET CHANGED FROM 1 TO 1
OFFSET CHANGED FROM 1 TO 1
OFFSET CHANGED FROM 1 TO 2
OFFSET CHANGED FROM 2 TO 1
OFFSET CHANGED FROM 1 TO 2
OFFSET CHANGED FROM 2 TO 3
OFFSET CHANGED FROM 3 TO 3
OFFSET CHANGED FROM 3 TO 6
OFFSET CHANGED FROM 6 TO 6
OFFSET CHANGED FROM 6 TO 4
OFFSET CHANGED FROM 4 TO 2
OFFSET CHANGED FROM 2 TO 3
OFFSET CHANGED FROM 3 TO 2
OFFSET CHANGED FROM 2 TO 5
OFFSET CHANGED FROM 5 TO 5
OFFSET CHANGED FROM 5 TO 4
OFFSET CHANGED FROM 4 TO 5
OFFSET CHANGED FROM 5 TO 3
OFFSET CHANGED FROM 3 TO 8
OFFSET CHANGED FROM 8 TO 6
OFFSET CHANGED FROM 6 TO 7
OFFSET CHANGED FROM 7 TO 8
OFFSET CHANGED FROM 8 TO 9
OFFSET CHANGED FROM 9 TO 3
OFFSET CHANGED FROM 3 TO 3
OFFSET CHANGED FROM 3 TO 2
OFFSET CHANGED FROM 2 TO 2
OFFSET CHANGED FROM 2 TO 5
OFFSET CHANGED FROM 5 TO 5
OFFSET CHANGED FROM 5 TO 1
OFFSET CHANGED FROM 1 TO 5
OFFSET CHANGED FROM 5 TO 5
OFFSET CHANGED FROM 5 TO 4
OFFSET CHANGED FROM 4 TO 1
OFFSET CHANGED FROM 1 TO 1
OFFSET CHANGED FROM 1 TO 1
OFFSET CHANGED FROM 1 TO 1
OFFSET CHANGED FROM 1 TO 1
OFFSET CHANGED FROM 1 TO 1
OFFSET CHANGED FROM 1 TO 1
OFFSET CHANGED FROM 1 TO 7
OFFSET CHANGED FROM 7 TO 7
OFFSET CHANGED FROM 7 TO 4
OFFSET CHANGED FROM 4 TO 3
Heartbeat CPU 0 instructions: 240000000 cycles: 183342168 heartbeat IPC: 1.10896 cumulative IPC: 1.13604 (Simulation time: 0 hr 6 min 34 sec) 
OFFSET CHANGED FROM 3 TO 1
OFFSET CHANGED FROM 1 TO 1
OFFSET CHANGED FROM 1 TO 3
OFFSET CHANGED FROM 3 TO 4
OFFSET CHANGED FROM 4 TO 4
OFFSET CHANGED FROM 4 TO 4
OFFSET CHANGED FROM 4 TO 4
OFFSET CHANGED FROM 4 TO 4
OFFSET CHANGED FROM 4 TO 5
OFFSET CHANGED FROM 5 TO 10
OFFSET CHANGED FROM 10 TO 14
OFFSET CHANGED FROM 14 TO 3
OFFSET CHANGED FROM 3 TO 2
OFFSET CHANGED FROM 2 TO 2
OFFSET CHANGED FROM 2 TO 3
OFFSET CHANGED FROM 3 TO 2
OFFSET CHANGED FROM 2 TO 2
OFFSET CHANGED FROM 2 TO 6
OFFSET CHANGED FROM 6 TO 2
OFFSET CHANGED FROM 2 TO 1
OFFSET CHANGED FROM 1 TO 5
OFFSET CHANGED FROM 5 TO 4
OFFSET CHANGED FROM 4 TO 3
OFFSET CHANGED FROM 3 TO 1
OFFSET CHANGED FROM 1 TO 1
OFFSET CHANGED FROM 1 TO 1
OFFSET CHANGED FROM 1 TO 1
OFFSET CHANGED FROM 1 TO 1
OFFSET CHANGED FROM 1 TO 1
OFFSET CHANGED FROM 1 TO 3
OFFSET CHANGED FROM 3 TO 2
OFFSET CHANGED FROM 2 TO 5
OFFSET CHANGED FROM 5 TO 3
OFFSET CHANGED FROM 3 TO 1
OFFSET CHANGED FROM 1 TO 2
OFFSET CHANGED FROM 2 TO 2
OFFSET CHANGED FROM 2 TO 2
OFFSET CHANGED FROM 2 TO 5
OFFSET CHANGED FROM 5 TO 4
OFFSET CHANGED FROM 4 TO 4
OFFSET CHANGED FROM 4 TO 4
OFFSET CHANGED FROM 4 TO 4
OFFSET CHANGED FROM 4 TO 4
OFFSET CHANGED FROM 4 TO 4
OFFSET CHANGED FROM 4 TO 3
OFFSET CHANGED FROM 3 TO 2
OFFSET CHANGED FROM 2 TO 4
OFFSET CHANGED FROM 4 TO 6
OFFSET CHANGED FROM 6 TO 9
OFFSET CHANGED FROM 9 TO 2
OFFSET CHANGED FROM 2 TO 2
OFFSET CHANGED FROM 2 TO 2
OFFSET CHANGED FROM 2 TO 2
OFFSET CHANGED FROM 2 TO 4
OFFSET CHANGED FROM 4 TO 5
OFFSET CHANGED FROM 5 TO 1
OFFSET CHANGED FROM 1 TO 4
OFFSET CHANGED FROM 4 TO 4
OFFSET CHANGED FROM 4 TO 4
OFFSET CHANGED FROM 4 TO 2
OFFSET CHANGED FROM 2 TO 1
OFFSET CHANGED FROM 1 TO 1
OFFSET CHANGED FROM 1 TO 2
OFFSET CHANGED FROM 2 TO 1
OFFSET CHANGED FROM 1 TO 2
OFFSET CHANGED FROM 2 TO 2
OFFSET CHANGED FROM 2 TO 2
OFFSET CHANGED FROM 2 TO 3
OFFSET CHANGED FROM 3 TO 5
OFFSET CHANGED FROM 5 TO 5
OFFSET CHANGED FROM 5 TO 3
OFFSET CHANGED FROM 3 TO 3
OFFSET CHANGED FROM 3 TO 2
Heartbeat CPU 0 instructions: 250000000 cycles: 192340520 heartbeat IPC: 1.11131 cumulative IPC: 1.13477 (Simulation time: 0 hr 6 min 49 sec) 
OFFSET CHANGED FROM 2 TO 1
OFFSET CHANGED FROM 1 TO 4
OFFSET CHANGED FROM 4 TO 5
OFFSET CHANGED FROM 5 TO 4
OFFSET CHANGED FROM 4 TO 4
OFFSET CHANGED FROM 4 TO 5
OFFSET CHANGED FROM 5 TO 4
OFFSET CHANGED FROM 4 TO 4
OFFSET CHANGED FROM 4 TO 7
OFFSET CHANGED FROM 7 TO 11
OFFSET CHANGED FROM 11 TO 9
OFFSET CHANGED FROM 9 TO 8
OFFSET CHANGED FROM 8 TO 8
OFFSET CHANGED FROM 8 TO 8
OFFSET CHANGED FROM 8 TO 2
OFFSET CHANGED FROM 2 TO 1
OFFSET CHANGED FROM 1 TO 1
OFFSET CHANGED FROM 1 TO 1
OFFSET CHANGED FROM 1 TO 1
OFFSET CHANGED FROM 1 TO 2
OFFSET CHANGED FROM 2 TO 1
OFFSET CHANGED FROM 1 TO 1
OFFSET CHANGED FROM 1 TO 3
OFFSET CHANGED FROM 3 TO 4
OFFSET CHANGED FROM 4 TO 4
OFFSET CHANGED FROM 4 TO 7
OFFSET CHANGED FROM 7 TO 2
OFFSET CHANGED FROM 2 TO 2
OFFSET CHANGED FROM 2 TO 4
OFFSET CHANGED FROM 4 TO 6
OFFSET CHANGED FROM 6 TO 6
OFFSET CHANGED FROM 6 TO 6
OFFSET CHANGED FROM 6 TO 6
OFFSET CHANGED FROM 6 TO 4
OFFSET CHANGED FROM 4 TO 4
OFFSET CHANGED FROM 4 TO 5
OFFSET CHANGED FROM 5 TO 12
OFFSET CHANGED FROM 12 TO 3
OFFSET CHANGED FROM 3 TO 4
OFFSET CHANGED FROM 4 TO 4
OFFSET CHANGED FROM 4 TO 2
OFFSET CHANGED FROM 2 TO 3
OFFSET CHANGED FROM 3 TO 2
OFFSET CHANGED FROM 2 TO 2
OFFSET CHANGED FROM 2 TO 3
OFFSET CHANGED FROM 3 TO 8
OFFSET CHANGED FROM 8 TO 5
OFFSET CHANGED FROM 5 TO 1
OFFSET CHANGED FROM 1 TO 4
OFFSET CHANGED FROM 4 TO 4
OFFSET CHANGED FROM 4 TO 4
OFFSET CHANGED FROM 4 TO 1
OFFSET CHANGED FROM 1 TO 1
OFFSET CHANGED FROM 1 TO 1
OFFSET CHANGED FROM 1 TO 1
OFFSET CHANGED FROM 1 TO 1
OFFSET CHANGED FROM 1 TO 1
OFFSET CHANGED FROM 1 TO 1
OFFSET CHANGED FROM 1 TO 1
OFFSET CHANGED FROM 1 TO 6
OFFSET CHANGED FROM 6 TO 5
OFFSET CHANGED FROM 5 TO 3
OFFSET CHANGED FROM 3 TO 2
OFFSET CHANGED FROM 2 TO 3
OFFSET CHANGED FROM 3 TO 5
OFFSET CHANGED FROM 5 TO 5
OFFSET CHANGED FROM 5 TO 3
OFFSET CHANGED FROM 3 TO 3
OFFSET CHANGED FROM 3 TO 4
OFFSET CHANGED FROM 4 TO 3
OFFSET CHANGED FROM 3 TO 4
OFFSET CHANGED FROM 4 TO 9
Heartbeat CPU 0 instructions: 260000003 cycles: 201945461 heartbeat IPC: 1.04113 cumulative IPC: 1.12994 (Simulation time: 0 hr 7 min 5 sec) 
OFFSET CHANGED FROM 9 TO 8
OFFSET CHANGED FROM 8 TO 7
OFFSET CHANGED FROM 7 TO 2
OFFSET CHANGED FROM 2 TO 2
OFFSET CHANGED FROM 2 TO 2
OFFSET CHANGED FROM 2 TO 2
OFFSET CHANGED FROM 2 TO 2
OFFSET CHANGED FROM 2 TO 4
OFFSET CHANGED FROM 4 TO 6
OFFSET CHANGED FROM 6 TO 3
OFFSET CHANGED FROM 3 TO 3
OFFSET CHANGED FROM 3 TO 4
OFFSET CHANGED FROM 4 TO 4
OFFSET CHANGED FROM 4 TO 1
OFFSET CHANGED FROM 1 TO 1
OFFSET CHANGED FROM 1 TO 1
OFFSET CHANGED FROM 1 TO 1
OFFSET CHANGED FROM 1 TO 1
OFFSET CHANGED FROM 1 TO 1
OFFSET CHANGED FROM 1 TO 1
OFFSET CHANGED FROM 1 TO 1
OFFSET CHANGED FROM 1 TO 3
OFFSET CHANGED FROM 3 TO 3
OFFSET CHANGED FROM 3 TO 5
OFFSET CHANGED FROM 5 TO 2
OFFSET CHANGED FROM 2 TO 5
OFFSET CHANGED FROM 5 TO 1
OFFSET CHANGED FROM 1 TO 5
OFFSET CHANGED FROM 5 TO 4
OFFSET CHANGED FROM 4 TO 5
OFFSET CHANGED FROM 5 TO 5
OFFSET CHANGED FROM 5 TO 3
OFFSET CHANGED FROM 3 TO 4
OFFSET CHANGED FROM 4 TO 4
OFFSET CHANGED FROM 4 TO 3
OFFSET CHANGED FROM 3 TO 3
OFFSET CHANGED FROM 3 TO 3
OFFSET CHANGED FROM 3 TO 5
OFFSET CHANGED FROM 5 TO 7
OFFSET CHANGED FROM 7 TO 2
OFFSET CHANGED FROM 2 TO 2
OFFSET CHANGED FROM 2 TO 3
OFFSET CHANGED FROM 3 TO 4
OFFSET CHANGED FROM 4 TO 2
OFFSET CHANGED FROM 2 TO 9
OFFSET CHANGED FROM 9 TO 3
OFFSET CHANGED FROM 3 TO 1
OFFSET CHANGED FROM 1 TO 3
OFFSET CHANGED FROM 3 TO 4
OFFSET CHANGED FROM 4 TO 4
OFFSET CHANGED FROM 4 TO 1
OFFSET CHANGED FROM 1 TO 1
OFFSET CHANGED FROM 1 TO 1
OFFSET CHANGED FROM 1 TO 1
OFFSET CHANGED FROM 1 TO 1
OFFSET CHANGED FROM 1 TO 1
OFFSET CHANGED FROM 1 TO 2
OFFSET CHANGED FROM 2 TO 1
OFFSET CHANGED FROM 1 TO 5
OFFSET CHANGED FROM 5 TO 6
OFFSET CHANGED FROM 6 TO 1
OFFSET CHANGED FROM 1 TO 2
OFFSET CHANGED FROM 2 TO 3
OFFSET CHANGED FROM 3 TO 2
OFFSET CHANGED FROM 2 TO 1
OFFSET CHANGED FROM 1 TO 4
OFFSET CHANGED FROM 4 TO 4
OFFSET CHANGED FROM 4 TO 4
OFFSET CHANGED FROM 4 TO 4
OFFSET CHANGED FROM 4 TO 4
OFFSET CHANGED FROM 4 TO 4
OFFSET CHANGED FROM 4 TO 6
OFFSET CHANGED FROM 6 TO 13
PREFETCHING INTO L2 w/ PREFETCH SCORE 31 (MSHR OCC = 28)
PREFETCHING INTO L2 w/ PREFETCH SCORE 31 (MSHR OCC = 28)
PREFETCHING INTO L2 w/ PREFETCH SCORE 31 (MSHR OCC = 28)
PREFETCHING INTO L2 w/ PREFETCH SCORE 31 (MSHR OCC = 28)
OFFSET CHANGED FROM 13 TO 8
Heartbeat CPU 0 instructions: 270000000 cycles: 210860636 heartbeat IPC: 1.12168 cumulative IPC: 1.12956 (Simulation time: 0 hr 7 min 21 sec) 
OFFSET CHANGED FROM 8 TO 2
OFFSET CHANGED FROM 2 TO 4
OFFSET CHANGED FROM 4 TO 3
OFFSET CHANGED FROM 3 TO 3
OFFSET CHANGED FROM 3 TO 1
OFFSET CHANGED FROM 1 TO 1
OFFSET CHANGED FROM 1 TO 1
OFFSET CHANGED FROM 1 TO 1
OFFSET CHANGED FROM 1 TO 1
OFFSET CHANGED FROM 1 TO 1
OFFSET CHANGED FROM 1 TO 4
OFFSET CHANGED FROM 4 TO 3
OFFSET CHANGED FROM 3 TO 4
OFFSET CHANGED FROM 4 TO 6
OFFSET CHANGED FROM 6 TO 5
OFFSET CHANGED FROM 5 TO 1
OFFSET CHANGED FROM 1 TO 2
OFFSET CHANGED FROM 2 TO 3
OFFSET CHANGED FROM 3 TO 3
OFFSET CHANGED FROM 3 TO 5
OFFSET CHANGED FROM 5 TO 3
OFFSET CHANGED FROM 3 TO 5
OFFSET CHANGED FROM 5 TO 4
OFFSET CHANGED FROM 4 TO 4
OFFSET CHANGED FROM 4 TO 11
OFFSET CHANGED FROM 11 TO 13
OFFSET CHANGED FROM 13 TO 3
OFFSET CHANGED FROM 3 TO 5
OFFSET CHANGED FROM 5 TO 4
OFFSET CHANGED FROM 4 TO 2
OFFSET CHANGED FROM 2 TO 2
OFFSET CHANGED FROM 2 TO 2
OFFSET CHANGED FROM 2 TO 2
OFFSET CHANGED FROM 2 TO 4
OFFSET CHANGED FROM 4 TO 7
OFFSET CHANGED FROM 7 TO 1
OFFSET CHANGED FROM 1 TO 5
OFFSET CHANGED FROM 5 TO 4
OFFSET CHANGED FROM 4 TO 4
OFFSET CHANGED FROM 4 TO 1
OFFSET CHANGED FROM 1 TO 1
OFFSET CHANGED FROM 1 TO 1
OFFSET CHANGED FROM 1 TO 1
OFFSET CHANGED FROM 1 TO 1
OFFSET CHANGED FROM 1 TO 2
OFFSET CHANGED FROM 2 TO 3
OFFSET CHANGED FROM 3 TO 6
OFFSET CHANGED FROM 6 TO 8
OFFSET CHANGED FROM 8 TO 6
OFFSET CHANGED FROM 6 TO 5
OFFSET CHANGED FROM 5 TO 3
OFFSET CHANGED FROM 3 TO 3
OFFSET CHANGED FROM 3 TO 3
OFFSET CHANGED FROM 3 TO 4
OFFSET CHANGED FROM 4 TO 3
OFFSET CHANGED FROM 3 TO 3
OFFSET CHANGED FROM 3 TO 3
OFFSET CHANGED FROM 3 TO 3
OFFSET CHANGED FROM 3 TO 3
OFFSET CHANGED FROM 3 TO 8
OFFSET CHANGED FROM 8 TO 7
OFFSET CHANGED FROM 7 TO 2
OFFSET CHANGED FROM 2 TO 2
OFFSET CHANGED FROM 2 TO 3
OFFSET CHANGED FROM 3 TO 3
OFFSET CHANGED FROM 3 TO 3
OFFSET CHANGED FROM 3 TO 3
OFFSET CHANGED FROM 3 TO 7
OFFSET CHANGED FROM 7 TO 5
OFFSET CHANGED FROM 5 TO 3
OFFSET CHANGED FROM 3 TO 4
OFFSET CHANGED FROM 4 TO 5
OFFSET CHANGED FROM 5 TO 1
OFFSET CHANGED FROM 1 TO 1
Heartbeat CPU 0 instructions: 280000000 cycles: 220299635 heartbeat IPC: 1.05943 cumulative IPC: 1.12632 (Simulation time: 0 hr 7 min 36 sec) 
OFFSET CHANGED FROM 1 TO 1
OFFSET CHANGED FROM 1 TO 1
OFFSET CHANGED FROM 1 TO 1
OFFSET CHANGED FROM 1 TO 1
OFFSET CHANGED FROM 1 TO 1
OFFSET CHANGED FROM 1 TO 1
OFFSET CHANGED FROM 1 TO 3
OFFSET CHANGED FROM 3 TO 3
OFFSET CHANGED FROM 3 TO 3
OFFSET CHANGED FROM 3 TO 3
OFFSET CHANGED FROM 3 TO 2
OFFSET CHANGED FROM 2 TO 1
OFFSET CHANGED FROM 1 TO 1
OFFSET CHANGED FROM 1 TO 4
OFFSET CHANGED FROM 4 TO 5
OFFSET CHANGED FROM 5 TO 4
OFFSET CHANGED FROM 4 TO 3
OFFSET CHANGED FROM 3 TO 4
OFFSET CHANGED FROM 4 TO 4
OFFSET CHANGED FROM 4 TO 4
OFFSET CHANGED FROM 4 TO 3
OFFSET CHANGED FROM 3 TO 3
OFFSET CHANGED FROM 3 TO 2
OFFSET CHANGED FROM 2 TO 6
OFFSET CHANGED FROM 6 TO 6
OFFSET CHANGED FROM 6 TO 4
OFFSET CHANGED FROM 4 TO 4
OFFSET CHANGED FROM 4 TO 2
OFFSET CHANGED FROM 2 TO 3
OFFSET CHANGED FROM 3 TO 9
OFFSET CHANGED FROM 9 TO 5
OFFSET CHANGED FROM 5 TO 3
OFFSET CHANGED FROM 3 TO 5
OFFSET CHANGED FROM 5 TO 4
OFFSET CHANGED FROM 4 TO 7
OFFSET CHANGED FROM 7 TO 2
OFFSET CHANGED FROM 2 TO 1
OFFSET CHANGED FROM 1 TO 1
OFFSET CHANGED FROM 1 TO 1
OFFSET CHANGED FROM 1 TO 1
OFFSET CHANGED FROM 1 TO 1
OFFSET CHANGED FROM 1 TO 1
OFFSET CHANGED FROM 1 TO 1
OFFSET CHANGED FROM 1 TO 3
OFFSET CHANGED FROM 3 TO 4
OFFSET CHANGED FROM 4 TO 4
OFFSET CHANGED FROM 4 TO 1
OFFSET CHANGED FROM 1 TO 1
OFFSET CHANGED FROM 1 TO 3
OFFSET CHANGED FROM 3 TO 2
OFFSET CHANGED FROM 2 TO 5
OFFSET CHANGED FROM 5 TO 7
OFFSET CHANGED FROM 7 TO 5
OFFSET CHANGED FROM 5 TO 6
OFFSET CHANGED FROM 6 TO 5
OFFSET CHANGED FROM 5 TO 4
OFFSET CHANGED FROM 4 TO 4
OFFSET CHANGED FROM 4 TO 9
OFFSET CHANGED FROM 9 TO 4
OFFSET CHANGED FROM 4 TO 1
OFFSET CHANGED FROM 1 TO 3
OFFSET CHANGED FROM 3 TO 4
OFFSET CHANGED FROM 4 TO 3
OFFSET CHANGED FROM 3 TO 1
OFFSET CHANGED FROM 1 TO 1
OFFSET CHANGED FROM 1 TO 1
OFFSET CHANGED FROM 1 TO 1
OFFSET CHANGED FROM 1 TO 1
OFFSET CHANGED FROM 1 TO 1
OFFSET CHANGED FROM 1 TO 1
OFFSET CHANGED FROM 1 TO 2
OFFSET CHANGED FROM 2 TO 5
OFFSET CHANGED FROM 5 TO 5
OFFSET CHANGED FROM 5 TO 7
OFFSET CHANGED FROM 7 TO 11
Heartbeat CPU 0 instructions: 290000000 cycles: 229243414 heartbeat IPC: 1.1181 cumulative IPC: 1.12597 (Simulation time: 0 hr 7 min 52 sec) 
OFFSET CHANGED FROM 11 TO 2
OFFSET CHANGED FROM 2 TO 2
OFFSET CHANGED FROM 2 TO 2
OFFSET CHANGED FROM 2 TO 5
OFFSET CHANGED FROM 5 TO 6
OFFSET CHANGED FROM 6 TO 7
OFFSET CHANGED FROM 7 TO 6
OFFSET CHANGED FROM 6 TO 6
OFFSET CHANGED FROM 6 TO 4
OFFSET CHANGED FROM 4 TO 9
OFFSET CHANGED FROM 9 TO 3
OFFSET CHANGED FROM 3 TO 4
OFFSET CHANGED FROM 4 TO 4
OFFSET CHANGED FROM 4 TO 3
OFFSET CHANGED FROM 3 TO 2
OFFSET CHANGED FROM 2 TO 4
OFFSET CHANGED FROM 4 TO 2
OFFSET CHANGED FROM 2 TO 3
OFFSET CHANGED FROM 3 TO 4
OFFSET CHANGED FROM 4 TO 1
OFFSET CHANGED FROM 1 TO 1
OFFSET CHANGED FROM 1 TO 5
OFFSET CHANGED FROM 5 TO 5
OFFSET CHANGED FROM 5 TO 4
OFFSET CHANGED FROM 4 TO 2
OFFSET CHANGED FROM 2 TO 1
OFFSET CHANGED FROM 1 TO 1
OFFSET CHANGED FROM 1 TO 1
OFFSET CHANGED FROM 1 TO 1
OFFSET CHANGED FROM 1 TO 3
OFFSET CHANGED FROM 3 TO 2
OFFSET CHANGED FROM 2 TO 7
OFFSET CHANGED FROM 7 TO 7
OFFSET CHANGED FROM 7 TO 2
OFFSET CHANGED FROM 2 TO 1
OFFSET CHANGED FROM 1 TO 5
OFFSET CHANGED FROM 5 TO 2
OFFSET CHANGED FROM 2 TO 3
OFFSET CHANGED FROM 3 TO 3
OFFSET CHANGED FROM 3 TO 3
OFFSET CHANGED FROM 3 TO 4
OFFSET CHANGED FROM 4 TO 4
OFFSET CHANGED FROM 4 TO 3
OFFSET CHANGED FROM 3 TO 9
OFFSET CHANGED FROM 9 TO 9
OFFSET CHANGED FROM 9 TO 7
OFFSET CHANGED FROM 7 TO 2
OFFSET CHANGED FROM 2 TO 2
OFFSET CHANGED FROM 2 TO 2
OFFSET CHANGED FROM 2 TO 3
OFFSET CHANGED FROM 3 TO 2
OFFSET CHANGED FROM 2 TO 5
OFFSET CHANGED FROM 5 TO 6
OFFSET CHANGED FROM 6 TO 1
OFFSET CHANGED FROM 1 TO 4
OFFSET CHANGED FROM 4 TO 4
OFFSET CHANGED FROM 4 TO 5
OFFSET CHANGED FROM 5 TO 1
OFFSET CHANGED FROM 1 TO 1
OFFSET CHANGED FROM 1 TO 1
OFFSET CHANGED FROM 1 TO 1
OFFSET CHANGED FROM 1 TO 1
OFFSET CHANGED FROM 1 TO 1
OFFSET CHANGED FROM 1 TO 1
OFFSET CHANGED FROM 1 TO 1
OFFSET CHANGED FROM 1 TO 5
OFFSET CHANGED FROM 5 TO 4
OFFSET CHANGED FROM 4 TO 6
OFFSET CHANGED FROM 6 TO 2
Heartbeat CPU 0 instructions: 300000002 cycles: 238336862 heartbeat IPC: 1.09969 cumulative IPC: 1.1249 (Simulation time: 0 hr 8 min 7 sec) 
Finished CPU 0 instructions: 250000000 cycles: 222242796 cumulative IPC: 1.1249 (Simulation time: 0 hr 8 min 7 sec) 

ChampSim completed all CPUs

Region of Interest Statistics

CPU 0 cumulative IPC: 1.1249 instructions: 250000000 cycles: 222242796
L1D TOTAL     ACCESS:   36826221  HIT:   32262339  MISS:    4563882
L1D LOAD      ACCESS:   26308689  HIT:   23135634  MISS:    3173055
L1D RFO       ACCESS:   10517532  HIT:    9126705  MISS:    1390827
L1D PREFETCH  ACCESS:          0  HIT:          0  MISS:          0
L1D WRITEBACK ACCESS:          0  HIT:          0  MISS:          0
L1D PREFETCH  REQUESTED:          0  ISSUED:          0  USEFUL:          0  USELESS:          0
L1D AVERAGE MISS LATENCY: 73.4904 cycles
L1I TOTAL     ACCESS:   40964519  HIT:   40958288  MISS:       6231
L1I LOAD      ACCESS:   40961896  HIT:   40957566  MISS:       4330
L1I RFO       ACCESS:          0  HIT:          0  MISS:          0
L1I PREFETCH  ACCESS:       2623  HIT:        722  MISS:       1901
L1I WRITEBACK ACCESS:          0  HIT:          0  MISS:          0
L1I PREFETCH  REQUESTED:       6512  ISSUED:       6512  USEFUL:       1734  USELESS:        167
L1I AVERAGE MISS LATENCY: 104.988 cycles
L2C TOTAL     ACCESS:    9293709  HIT:    6385967  MISS:    2907742
L2C LOAD      ACCESS:    3176027  HIT:    2792347  MISS:     383680
L2C RFO       ACCESS:    1390827  HIT:      74283  MISS:    1316544
L2C PREFETCH  ACCESS:    2772073  HIT:    1566271  MISS:    1205802
L2C WRITEBACK ACCESS:    1954782  HIT:    1953066  MISS:       1716
L2C PREFETCH  REQUESTED:    3009485  ISSUED:    3009485  USEFUL:    1185804  USELESS:      19954
L2C AVERAGE MISS LATENCY: 127.996 cycles
LLC TOTAL     ACCESS:    4458620  HIT:    3306452  MISS:    1152168
LLC LOAD      ACCESS:     160943  HIT:     109362  MISS:      51581
LLC RFO       ACCESS:    1316526  HIT:     674931  MISS:     641595
LLC PREFETCH  ACCESS:    1428555  HIT:     969583  MISS:     458972
LLC WRITEBACK ACCESS:    1552596  HIT:    1552576  MISS:         20
LLC PREFETCH  REQUESTED:          0  ISSUED:          0  USEFUL:     113041  USELESS:     348260
LLC AVERAGE MISS LATENCY: 267.736 cycles
Major fault: 0 Minor fault: 5602
CPU 0 L1I next line prefetcher final stats
CPU 0 L2C best offset prefetcher final stats

DRAM Statistics
 CHANNEL 0
 RQ ROW_BUFFER_HIT:     254445  ROW_BUFFER_MISS:     897506
 DBUS_CONGESTED:    1089786
 WQ ROW_BUFFER_HIT:     296896  ROW_BUFFER_MISS:     598568  FULL:          0

 AVG_CONGESTED_CYCLE: 6

CPU 0 Branch Prediction Accuracy: 87.0229% MPKI: 12.4561 Average ROB Occupancy at Mispredict: 12.8395

Branch types
NOT_BRANCH: 226003330 90.4013%
BRANCH_DIRECT_JUMP: 988106 0.395242%
BRANCH_INDIRECT: 4406 0.0017624%
BRANCH_CONDITIONAL: 22925187 9.17007%
BRANCH_DIRECT_CALL: 39300 0.01572%
BRANCH_INDIRECT_CALL: 0 0%
BRANCH_RETURN: 39300 0.01572%
BRANCH_OTHER: 0 0%

