
*** ChampSim Multicore Out-of-Order Simulator ***

Warmup Instructions: 50000000
Simulation Instructions: 250000000
Number of CPUs: 1
LLC sets: 2048
LLC ways: 16
Off-chip DRAM Size: 4096 MB Channels: 1 Width: 64-bit Data Rate: 3200 MT/s

CPU 0 runs /home/wezelis2/ECE511_Project/ChampSim/dpc3_traces/641.leela_s-334B.champsimtrace.xz
CPU 0 Bimodal branch predictor
CPU 0 L1I next line prefetcher
INIT BEST RECENT REQUEST TABLE MODULE
INIT DELAY QUEUE MODULE
INIT PREFETCH THROTTLE MODULE
INIT OFFSET SCORE MODULE
INIT BEST OFFSET PREFETCHER
OFFSET CHANGED FROM 1 TO 4
OFFSET CHANGED FROM 4 TO 4
OFFSET CHANGED FROM 4 TO 4
Heartbeat CPU 0 instructions: 10000002 cycles: 4538237 heartbeat IPC: 2.2035 cumulative IPC: 2.2035 (Simulation time: 0 hr 0 min 24 sec) 
OFFSET CHANGED FROM 4 TO 4
OFFSET CHANGED FROM 4 TO -5
OFFSET CHANGED FROM -5 TO 4
OFFSET CHANGED FROM 4 TO -5
Heartbeat CPU 0 instructions: 20000002 cycles: 9095152 heartbeat IPC: 2.19447 cumulative IPC: 2.19897 (Simulation time: 0 hr 0 min 49 sec) 
OFFSET CHANGED FROM -5 TO 4
OFFSET CHANGED FROM 4 TO 5
OFFSET CHANGED FROM 5 TO 4
OFFSET CHANGED FROM 4 TO 5
Heartbeat CPU 0 instructions: 30000001 cycles: 13631304 heartbeat IPC: 2.20451 cumulative IPC: 2.20082 (Simulation time: 0 hr 1 min 14 sec) 
OFFSET CHANGED FROM 5 TO -7
OFFSET CHANGED FROM -7 TO -5
OFFSET CHANGED FROM -5 TO 4
OFFSET CHANGED FROM 4 TO 4
Heartbeat CPU 0 instructions: 40000001 cycles: 18146761 heartbeat IPC: 2.21462 cumulative IPC: 2.20425 (Simulation time: 0 hr 1 min 38 sec) 
OFFSET CHANGED FROM 4 TO -6
OFFSET CHANGED FROM -6 TO 4
OFFSET CHANGED FROM 4 TO -4
Heartbeat CPU 0 instructions: 50000002 cycles: 22701199 heartbeat IPC: 2.19566 cumulative IPC: 2.20253 (Simulation time: 0 hr 2 min 3 sec) 

Warmup complete CPU 0 instructions: 50000002 cycles: 22701199 (Simulation time: 0 hr 2 min 3 sec) 

OFFSET CHANGED FROM -4 TO -4
OFFSET CHANGED FROM -4 TO 2
OFFSET CHANGED FROM 2 TO 3
OFFSET CHANGED FROM 3 TO 3
Heartbeat CPU 0 instructions: 60000003 cycles: 36007842 heartbeat IPC: 0.751504 cumulative IPC: 0.751504 (Simulation time: 0 hr 2 min 20 sec) 
OFFSET CHANGED FROM 3 TO 5
OFFSET CHANGED FROM 5 TO 5
OFFSET CHANGED FROM 5 TO 2
OFFSET CHANGED FROM 2 TO 1
Heartbeat CPU 0 instructions: 70000000 cycles: 49273006 heartbeat IPC: 0.753854 cumulative IPC: 0.752677 (Simulation time: 0 hr 2 min 37 sec) 
OFFSET CHANGED FROM 1 TO 4
OFFSET CHANGED FROM 4 TO -3
OFFSET CHANGED FROM -3 TO 5
OFFSET CHANGED FROM 5 TO 3
Heartbeat CPU 0 instructions: 80000001 cycles: 62597202 heartbeat IPC: 0.750514 cumulative IPC: 0.751955 (Simulation time: 0 hr 2 min 54 sec) 
OFFSET CHANGED FROM 3 TO 2
OFFSET CHANGED FROM 2 TO -3
OFFSET CHANGED FROM -3 TO -4
OFFSET CHANGED FROM -4 TO -3
Heartbeat CPU 0 instructions: 90000001 cycles: 75917327 heartbeat IPC: 0.750744 cumulative IPC: 0.751652 (Simulation time: 0 hr 3 min 11 sec) 
OFFSET CHANGED FROM -3 TO 1
OFFSET CHANGED FROM 1 TO 2
OFFSET CHANGED FROM 2 TO 3
Heartbeat CPU 0 instructions: 100000000 cycles: 89408349 heartbeat IPC: 0.741234 cumulative IPC: 0.749545 (Simulation time: 0 hr 3 min 29 sec) 
OFFSET CHANGED FROM 3 TO 2
OFFSET CHANGED FROM 2 TO 4
OFFSET CHANGED FROM 4 TO 4
Heartbeat CPU 0 instructions: 110000000 cycles: 102949169 heartbeat IPC: 0.738508 cumulative IPC: 0.747682 (Simulation time: 0 hr 3 min 46 sec) 
OFFSET CHANGED FROM 4 TO 3
OFFSET CHANGED FROM 3 TO 4
OFFSET CHANGED FROM 4 TO 3
Heartbeat CPU 0 instructions: 120000000 cycles: 116358607 heartbeat IPC: 0.745743 cumulative IPC: 0.747405 (Simulation time: 0 hr 4 min 3 sec) 
OFFSET CHANGED FROM 3 TO 1
OFFSET CHANGED FROM 1 TO 2
OFFSET CHANGED FROM 2 TO 3
Heartbeat CPU 0 instructions: 130000000 cycles: 129825734 heartbeat IPC: 0.742549 cumulative IPC: 0.746794 (Simulation time: 0 hr 4 min 21 sec) 
OFFSET CHANGED FROM 3 TO 3
OFFSET CHANGED FROM 3 TO 3
OFFSET CHANGED FROM 3 TO 3
Heartbeat CPU 0 instructions: 140000001 cycles: 143144942 heartbeat IPC: 0.750795 cumulative IPC: 0.747237 (Simulation time: 0 hr 4 min 38 sec) 
OFFSET CHANGED FROM 3 TO 4
OFFSET CHANGED FROM 4 TO 5
OFFSET CHANGED FROM 5 TO 3
Heartbeat CPU 0 instructions: 150000000 cycles: 156334637 heartbeat IPC: 0.758168 cumulative IPC: 0.748316 (Simulation time: 0 hr 4 min 55 sec) 
OFFSET CHANGED FROM 3 TO 3
OFFSET CHANGED FROM 3 TO 3
OFFSET CHANGED FROM 3 TO 3
OFFSET CHANGED FROM 3 TO 2
Heartbeat CPU 0 instructions: 160000001 cycles: 169646721 heartbeat IPC: 0.751197 cumulative IPC: 0.748577 (Simulation time: 0 hr 5 min 12 sec) 
OFFSET CHANGED FROM 2 TO 2
OFFSET CHANGED FROM 2 TO 3
OFFSET CHANGED FROM 3 TO 2
Heartbeat CPU 0 instructions: 170000000 cycles: 183084986 heartbeat IPC: 0.744144 cumulative IPC: 0.748205 (Simulation time: 0 hr 5 min 29 sec) 
OFFSET CHANGED FROM 2 TO 4
OFFSET CHANGED FROM 4 TO 5
OFFSET CHANGED FROM 5 TO 5
Heartbeat CPU 0 instructions: 180000000 cycles: 196480152 heartbeat IPC: 0.746538 cumulative IPC: 0.748077 (Simulation time: 0 hr 5 min 46 sec) 
OFFSET CHANGED FROM 5 TO 4
OFFSET CHANGED FROM 4 TO 3
OFFSET CHANGED FROM 3 TO 3
OFFSET CHANGED FROM 3 TO 1
OFFSET CHANGED FROM 1 TO 2
Heartbeat CPU 0 instructions: 190000003 cycles: 209794858 heartbeat IPC: 0.751049 cumulative IPC: 0.748288 (Simulation time: 0 hr 6 min 4 sec) 
OFFSET CHANGED FROM 2 TO 3
OFFSET CHANGED FROM 3 TO 2
OFFSET CHANGED FROM 2 TO 4
OFFSET CHANGED FROM 4 TO 3
OFFSET CHANGED FROM 3 TO 3
OFFSET CHANGED FROM 3 TO 5
OFFSET CHANGED FROM 5 TO 7
OFFSET CHANGED FROM 7 TO 2
Heartbeat CPU 0 instructions: 200000000 cycles: 223626527 heartbeat IPC: 0.722978 cumulative IPC: 0.746546 (Simulation time: 0 hr 6 min 21 sec) 
OFFSET CHANGED FROM 2 TO 1
OFFSET CHANGED FROM 1 TO 3
OFFSET CHANGED FROM 3 TO 2
OFFSET CHANGED FROM 2 TO 2
OFFSET CHANGED FROM 2 TO 2
OFFSET CHANGED FROM 2 TO 3
OFFSET CHANGED FROM 3 TO 8
OFFSET CHANGED FROM 8 TO 4
OFFSET CHANGED FROM 4 TO 2
OFFSET CHANGED FROM 2 TO 2
OFFSET CHANGED FROM 2 TO -6
OFFSET CHANGED FROM -6 TO 4
OFFSET CHANGED FROM 4 TO -4
Heartbeat CPU 0 instructions: 210000002 cycles: 238144191 heartbeat IPC: 0.688816 cumulative IPC: 0.742656 (Simulation time: 0 hr 6 min 40 sec) 
OFFSET CHANGED FROM -4 TO 3
OFFSET CHANGED FROM 3 TO 5
OFFSET CHANGED FROM 5 TO 4
OFFSET CHANGED FROM 4 TO 3
Heartbeat CPU 0 instructions: 220000000 cycles: 251502626 heartbeat IPC: 0.748591 cumulative IPC: 0.743002 (Simulation time: 0 hr 6 min 57 sec) 
OFFSET CHANGED FROM 3 TO 2
OFFSET CHANGED FROM 2 TO -3
OFFSET CHANGED FROM -3 TO 4
Heartbeat CPU 0 instructions: 230000002 cycles: 265100171 heartbeat IPC: 0.735427 cumulative IPC: 0.742577 (Simulation time: 0 hr 7 min 15 sec) 
OFFSET CHANGED FROM 4 TO 3
OFFSET CHANGED FROM 3 TO 3
Heartbeat CPU 0 instructions: 240000001 cycles: 278755601 heartbeat IPC: 0.732309 cumulative IPC: 0.74203 (Simulation time: 0 hr 7 min 32 sec) 
OFFSET CHANGED FROM 3 TO 3
OFFSET CHANGED FROM 3 TO 4
OFFSET CHANGED FROM 4 TO 3
OFFSET CHANGED FROM 3 TO 1
Heartbeat CPU 0 instructions: 250000002 cycles: 292305192 heartbeat IPC: 0.73803 cumulative IPC: 0.741829 (Simulation time: 0 hr 7 min 50 sec) 
OFFSET CHANGED FROM 1 TO -3
OFFSET CHANGED FROM -3 TO 2
OFFSET CHANGED FROM 2 TO 5
OFFSET CHANGED FROM 5 TO 5
Heartbeat CPU 0 instructions: 260000000 cycles: 305488968 heartbeat IPC: 0.758508 cumulative IPC: 0.742606 (Simulation time: 0 hr 8 min 7 sec) 
OFFSET CHANGED FROM 5 TO 4
OFFSET CHANGED FROM 4 TO 4
OFFSET CHANGED FROM 4 TO 5
OFFSET CHANGED FROM 5 TO -3
OFFSET CHANGED FROM -3 TO 2
Heartbeat CPU 0 instructions: 270000000 cycles: 318857669 heartbeat IPC: 0.748016 cumulative IPC: 0.742851 (Simulation time: 0 hr 8 min 25 sec) 
OFFSET CHANGED FROM 2 TO 4
OFFSET CHANGED FROM 4 TO -3
OFFSET CHANGED FROM -3 TO 2
Heartbeat CPU 0 instructions: 280000001 cycles: 332180086 heartbeat IPC: 0.750615 cumulative IPC: 0.743185 (Simulation time: 0 hr 8 min 42 sec) 
OFFSET CHANGED FROM 2 TO 3
OFFSET CHANGED FROM 3 TO 2
OFFSET CHANGED FROM 2 TO 1
OFFSET CHANGED FROM 1 TO 3
OFFSET CHANGED FROM 3 TO 3
Heartbeat CPU 0 instructions: 290000000 cycles: 345436632 heartbeat IPC: 0.754344 cumulative IPC: 0.743643 (Simulation time: 0 hr 9 min 0 sec) 
OFFSET CHANGED FROM 3 TO 3
OFFSET CHANGED FROM 3 TO 3
OFFSET CHANGED FROM 3 TO 3
OFFSET CHANGED FROM 3 TO 3
OFFSET CHANGED FROM 3 TO -3
Heartbeat CPU 0 instructions: 300000000 cycles: 358687025 heartbeat IPC: 0.754695 cumulative IPC: 0.744079 (Simulation time: 0 hr 9 min 17 sec) 
Finished CPU 0 instructions: 250000000 cycles: 335985832 cumulative IPC: 0.744079 (Simulation time: 0 hr 9 min 17 sec) 

ChampSim completed all CPUs

Region of Interest Statistics

CPU 0 cumulative IPC: 0.744079 instructions: 250000000 cycles: 335985832
L1D TOTAL     ACCESS:   77933878  HIT:   77546013  MISS:     387865
L1D LOAD      ACCESS:   47789682  HIT:   47496123  MISS:     293559
L1D RFO       ACCESS:   30144196  HIT:   30049890  MISS:      94306
L1D PREFETCH  ACCESS:          0  HIT:          0  MISS:          0
L1D WRITEBACK ACCESS:          0  HIT:          0  MISS:          0
L1D PREFETCH  REQUESTED:          0  ISSUED:          0  USEFUL:          0  USELESS:          0
L1D AVERAGE MISS LATENCY: 27.0629 cycles
L1I TOTAL     ACCESS:   48344872  HIT:   48196526  MISS:     148346
L1I LOAD      ACCESS:   48265763  HIT:   48171056  MISS:      94707
L1I RFO       ACCESS:          0  HIT:          0  MISS:          0
L1I PREFETCH  ACCESS:      79109  HIT:      25470  MISS:      53639
L1I WRITEBACK ACCESS:          0  HIT:          0  MISS:          0
L1I PREFETCH  REQUESTED:     112991  ISSUED:     112991  USEFUL:      34034  USELESS:      19590
L1I AVERAGE MISS LATENCY: 14.5793 cycles
L2C TOTAL     ACCESS:    1088022  HIT:    1029761  MISS:      58261
L2C LOAD      ACCESS:     388087  HIT:     379364  MISS:       8723
L2C RFO       ACCESS:      94279  HIT:      72067  MISS:      22212
L2C PREFETCH  ACCESS:     462710  HIT:     435512  MISS:      27198
L2C WRITEBACK ACCESS:     142946  HIT:     142818  MISS:        128
L2C PREFETCH  REQUESTED:     417558  ISSUED:     417558  USEFUL:      18505  USELESS:       8167
L2C AVERAGE MISS LATENCY: 129.571 cycles
LLC TOTAL     ACCESS:      82655  HIT:      39636  MISS:      43019
LLC LOAD      ACCESS:       7529  HIT:       2781  MISS:       4748
LLC RFO       ACCESS:      22207  HIT:        494  MISS:      21713
LLC PREFETCH  ACCESS:      28397  HIT:      11841  MISS:      16556
LLC WRITEBACK ACCESS:      24522  HIT:      24520  MISS:          2
LLC PREFETCH  REQUESTED:          0  ISSUED:          0  USEFUL:        484  USELESS:      11363
LLC AVERAGE MISS LATENCY: 136.42 cycles
Major fault: 0 Minor fault: 1517
CPU 0 L1I next line prefetcher final stats
CPU 0 L2C best offset prefetcher final stats

DRAM Statistics
 CHANNEL 0
 RQ ROW_BUFFER_HIT:      18900  ROW_BUFFER_MISS:      24114
 DBUS_CONGESTED:       5745
 WQ ROW_BUFFER_HIT:        389  ROW_BUFFER_MISS:       3127  FULL:          0

 AVG_CONGESTED_CYCLE: 6

CPU 0 Branch Prediction Accuracy: 88.2314% MPKI: 20.4975 Average ROB Occupancy at Mispredict: 23.0753

Branch types
NOT_BRANCH: 206456809 82.5827%
BRANCH_DIRECT_JUMP: 1542470 0.616988%
BRANCH_INDIRECT: 9564 0.0038256%
BRANCH_CONDITIONAL: 27403062 10.9612%
BRANCH_DIRECT_CALL: 7293869 2.91755%
BRANCH_INDIRECT_CALL: 23 9.2e-06%
BRANCH_RETURN: 7293887 2.91755%
BRANCH_OTHER: 0 0%

