
*** ChampSim Multicore Out-of-Order Simulator ***

Warmup Instructions: 50000000
Simulation Instructions: 250000000
Number of CPUs: 1
LLC sets: 2048
LLC ways: 16
Off-chip DRAM Size: 4096 MB Channels: 1 Width: 64-bit Data Rate: 3200 MT/s

CPU 0 runs /home/wezelis2/ece511/ECE511_Project/ChampSim/dpc3_traces/456.hmmer-327B.champsimtrace.xz
CPU 0 Bimodal branch predictor
CPU 0 L1I next line prefetcher
Heartbeat CPU 0 instructions: 10000000 cycles: 4814325 heartbeat IPC: 2.07713 cumulative IPC: 2.07713 (Simulation time: 0 hr 0 min 29 sec) 
Heartbeat CPU 0 instructions: 20000003 cycles: 9624666 heartbeat IPC: 2.07886 cumulative IPC: 2.07799 (Simulation time: 0 hr 0 min 59 sec) 
Heartbeat CPU 0 instructions: 30000001 cycles: 14423601 heartbeat IPC: 2.0838 cumulative IPC: 2.07992 (Simulation time: 0 hr 1 min 29 sec) 
Heartbeat CPU 0 instructions: 40000002 cycles: 19229855 heartbeat IPC: 2.08062 cumulative IPC: 2.0801 (Simulation time: 0 hr 2 min 0 sec) 
Heartbeat CPU 0 instructions: 50000003 cycles: 24034085 heartbeat IPC: 2.0815 cumulative IPC: 2.08038 (Simulation time: 0 hr 2 min 29 sec) 

Warmup complete CPU 0 instructions: 50000003 cycles: 24034085 (Simulation time: 0 hr 2 min 29 sec) 

Heartbeat CPU 0 instructions: 60000000 cycles: 29717582 heartbeat IPC: 1.75948 cumulative IPC: 1.75948 (Simulation time: 0 hr 2 min 58 sec) 
Heartbeat CPU 0 instructions: 70000002 cycles: 35398456 heartbeat IPC: 1.76029 cumulative IPC: 1.75989 (Simulation time: 0 hr 3 min 27 sec) 
Heartbeat CPU 0 instructions: 80000002 cycles: 41086111 heartbeat IPC: 1.75819 cumulative IPC: 1.75932 (Simulation time: 0 hr 3 min 55 sec) 
Heartbeat CPU 0 instructions: 90000000 cycles: 46863676 heartbeat IPC: 1.73083 cumulative IPC: 1.75211 (Simulation time: 0 hr 4 min 24 sec) 
Heartbeat CPU 0 instructions: 100000003 cycles: 52569330 heartbeat IPC: 1.75265 cumulative IPC: 1.75222 (Simulation time: 0 hr 4 min 53 sec) 
Heartbeat CPU 0 instructions: 110000000 cycles: 58268713 heartbeat IPC: 1.75458 cumulative IPC: 1.75261 (Simulation time: 0 hr 5 min 21 sec) 
Heartbeat CPU 0 instructions: 120000000 cycles: 63960365 heartbeat IPC: 1.75696 cumulative IPC: 1.75323 (Simulation time: 0 hr 5 min 50 sec) 
Heartbeat CPU 0 instructions: 130000001 cycles: 69648462 heartbeat IPC: 1.75806 cumulative IPC: 1.75383 (Simulation time: 0 hr 6 min 19 sec) 
Heartbeat CPU 0 instructions: 140000001 cycles: 75373870 heartbeat IPC: 1.7466 cumulative IPC: 1.75303 (Simulation time: 0 hr 6 min 47 sec) 
Heartbeat CPU 0 instructions: 150000003 cycles: 81052959 heartbeat IPC: 1.76085 cumulative IPC: 1.75381 (Simulation time: 0 hr 7 min 16 sec) 
Heartbeat CPU 0 instructions: 160000001 cycles: 86734905 heartbeat IPC: 1.75996 cumulative IPC: 1.75436 (Simulation time: 0 hr 7 min 45 sec) 
Heartbeat CPU 0 instructions: 170000001 cycles: 92416801 heartbeat IPC: 1.75998 cumulative IPC: 1.75483 (Simulation time: 0 hr 8 min 14 sec) 
Heartbeat CPU 0 instructions: 180000000 cycles: 98180613 heartbeat IPC: 1.73496 cumulative IPC: 1.75329 (Simulation time: 0 hr 8 min 42 sec) 
Heartbeat CPU 0 instructions: 190000000 cycles: 103829057 heartbeat IPC: 1.7704 cumulative IPC: 1.7545 (Simulation time: 0 hr 9 min 11 sec) 
Heartbeat CPU 0 instructions: 200000002 cycles: 109604223 heartbeat IPC: 1.73155 cumulative IPC: 1.75295 (Simulation time: 0 hr 9 min 40 sec) 
Heartbeat CPU 0 instructions: 210000003 cycles: 115374463 heartbeat IPC: 1.73303 cumulative IPC: 1.75169 (Simulation time: 0 hr 10 min 10 sec) 
Heartbeat CPU 0 instructions: 220000000 cycles: 121342816 heartbeat IPC: 1.6755 cumulative IPC: 1.74702 (Simulation time: 0 hr 10 min 39 sec) 
Heartbeat CPU 0 instructions: 230000000 cycles: 127098270 heartbeat IPC: 1.73748 cumulative IPC: 1.74648 (Simulation time: 0 hr 11 min 8 sec) 
Heartbeat CPU 0 instructions: 240000003 cycles: 132969407 heartbeat IPC: 1.70325 cumulative IPC: 1.74415 (Simulation time: 0 hr 11 min 37 sec) 
Heartbeat CPU 0 instructions: 250000003 cycles: 138702478 heartbeat IPC: 1.74427 cumulative IPC: 1.74416 (Simulation time: 0 hr 12 min 6 sec) 
Heartbeat CPU 0 instructions: 260000002 cycles: 144523984 heartbeat IPC: 1.71777 cumulative IPC: 1.74288 (Simulation time: 0 hr 12 min 35 sec) 
Heartbeat CPU 0 instructions: 270000002 cycles: 150395943 heartbeat IPC: 1.70301 cumulative IPC: 1.74103 (Simulation time: 0 hr 13 min 4 sec) 
Heartbeat CPU 0 instructions: 280000002 cycles: 156135506 heartbeat IPC: 1.74229 cumulative IPC: 1.74109 (Simulation time: 0 hr 13 min 33 sec) 
Heartbeat CPU 0 instructions: 290000000 cycles: 162007005 heartbeat IPC: 1.70314 cumulative IPC: 1.73947 (Simulation time: 0 hr 14 min 2 sec) 
Heartbeat CPU 0 instructions: 300000000 cycles: 167750957 heartbeat IPC: 1.74096 cumulative IPC: 1.73953 (Simulation time: 0 hr 14 min 32 sec) 
Finished CPU 0 instructions: 250000001 cycles: 143716873 cumulative IPC: 1.73953 (Simulation time: 0 hr 14 min 32 sec) 

ChampSim completed all CPUs

Region of Interest Statistics

CPU 0 cumulative IPC: 1.73953 instructions: 250000001 cycles: 143716873
L1D TOTAL     ACCESS:   88610873  HIT:   87531525  MISS:    1079348
L1D LOAD      ACCESS:   71687910  HIT:   71545589  MISS:     142321
L1D RFO       ACCESS:   15857759  HIT:   15694302  MISS:     163457
L1D PREFETCH  ACCESS:    1065204  HIT:     291634  MISS:     773570
L1D WRITEBACK ACCESS:          0  HIT:          0  MISS:          0
L1D PREFETCH  REQUESTED:    1096051  ISSUED:    1096051  USEFUL:     722551  USELESS:      51014
L1D AVERAGE MISS LATENCY: 90.7999 cycles
L1I TOTAL     ACCESS:   41046290  HIT:   41046284  MISS:          6
L1I LOAD      ACCESS:   41046287  HIT:   41046283  MISS:          4
L1I RFO       ACCESS:          0  HIT:          0  MISS:          0
L1I PREFETCH  ACCESS:          3  HIT:          1  MISS:          2
L1I WRITEBACK ACCESS:          0  HIT:          0  MISS:          0
L1I PREFETCH  REQUESTED:          4  ISSUED:          4  USEFUL:          3  USELESS:          1
L1I AVERAGE MISS LATENCY: 218.667 cycles
L2C TOTAL     ACCESS:    1770013  HIT:    1094291  MISS:     675722
L2C LOAD      ACCESS:     142211  HIT:     122809  MISS:      19402
L2C RFO       ACCESS:     158002  HIT:       5562  MISS:     152440
L2C PREFETCH  ACCESS:     803064  HIT:     299250  MISS:     503814
L2C WRITEBACK ACCESS:     666736  HIT:     666670  MISS:         66
L2C PREFETCH  REQUESTED:          0  ISSUED:          0  USEFUL:       4281  USELESS:     499586
L2C AVERAGE MISS LATENCY: 121.156 cycles
LLC TOTAL     ACCESS:    1327593  HIT:    1003279  MISS:     324314
LLC LOAD      ACCESS:      19400  HIT:      13447  MISS:       5953
LLC RFO       ACCESS:     152436  HIT:      78341  MISS:      74095
LLC PREFETCH  ACCESS:     503820  HIT:     259577  MISS:     244243
LLC WRITEBACK ACCESS:     651937  HIT:     651914  MISS:         23
LLC PREFETCH  REQUESTED:          0  ISSUED:          0  USEFUL:       2726  USELESS:     238858
LLC AVERAGE MISS LATENCY: 189.921 cycles
Major fault: 0 Minor fault: 2245
CPU 0 L1I next line prefetcher final stats

DRAM Statistics
 CHANNEL 0
 RQ ROW_BUFFER_HIT:     140397  ROW_BUFFER_MISS:     183894
 DBUS_CONGESTED:     389245
 WQ ROW_BUFFER_HIT:     148789  ROW_BUFFER_MISS:     167052  FULL:          0

 AVG_CONGESTED_CYCLE: 6

CPU 0 Branch Prediction Accuracy: 99.402% MPKI: 0.264272 Average ROB Occupancy at Mispredict: 88.5673

Branch types
NOT_BRANCH: 238951830 95.5807%
BRANCH_DIRECT_JUMP: 43649 0.0174596%
BRANCH_INDIRECT: 14325 0.00573%
BRANCH_CONDITIONAL: 10910018 4.36401%
BRANCH_DIRECT_CALL: 39823 0.0159292%
BRANCH_INDIRECT_CALL: 266 0.0001064%
BRANCH_RETURN: 40089 0.0160356%
BRANCH_OTHER: 0 0%

