
*** ChampSim Multicore Out-of-Order Simulator ***

Warmup Instructions: 50000000
Simulation Instructions: 250000000
Number of CPUs: 1
LLC sets: 2048
LLC ways: 16
Off-chip DRAM Size: 4096 MB Channels: 1 Width: 64-bit Data Rate: 3200 MT/s

CPU 0 runs /home/wezelis2/ece511/ECE511_Project/ChampSim/dpc3_traces/456.hmmer-327B.champsimtrace.xz
CPU 0 Bimodal branch predictor
CPU 0 L1I next line prefetcher
Heartbeat CPU 0 instructions: 10000000 cycles: 4816816 heartbeat IPC: 2.07606 cumulative IPC: 2.07606 (Simulation time: 0 hr 0 min 32 sec) 
Heartbeat CPU 0 instructions: 20000003 cycles: 9629765 heartbeat IPC: 2.07773 cumulative IPC: 2.07689 (Simulation time: 0 hr 1 min 3 sec) 
Heartbeat CPU 0 instructions: 30000001 cycles: 14431232 heartbeat IPC: 2.0827 cumulative IPC: 2.07882 (Simulation time: 0 hr 1 min 33 sec) 
Heartbeat CPU 0 instructions: 40000002 cycles: 19240158 heartbeat IPC: 2.07947 cumulative IPC: 2.07899 (Simulation time: 0 hr 2 min 4 sec) 
Heartbeat CPU 0 instructions: 50000003 cycles: 24047138 heartbeat IPC: 2.08031 cumulative IPC: 2.07925 (Simulation time: 0 hr 2 min 34 sec) 

Warmup complete CPU 0 instructions: 50000003 cycles: 24047138 (Simulation time: 0 hr 2 min 34 sec) 

Heartbeat CPU 0 instructions: 60000000 cycles: 29812911 heartbeat IPC: 1.73437 cumulative IPC: 1.73437 (Simulation time: 0 hr 3 min 3 sec) 
Heartbeat CPU 0 instructions: 70000002 cycles: 35569808 heartbeat IPC: 1.73705 cumulative IPC: 1.73571 (Simulation time: 0 hr 3 min 31 sec) 
Heartbeat CPU 0 instructions: 80000002 cycles: 41328558 heartbeat IPC: 1.73649 cumulative IPC: 1.73597 (Simulation time: 0 hr 4 min 1 sec) 
Heartbeat CPU 0 instructions: 90000000 cycles: 47803188 heartbeat IPC: 1.54449 cumulative IPC: 1.68378 (Simulation time: 0 hr 4 min 31 sec) 
Heartbeat CPU 0 instructions: 100000003 cycles: 53895926 heartbeat IPC: 1.6413 cumulative IPC: 1.67511 (Simulation time: 0 hr 5 min 1 sec) 
Heartbeat CPU 0 instructions: 110000000 cycles: 59998364 heartbeat IPC: 1.63869 cumulative IPC: 1.66893 (Simulation time: 0 hr 5 min 30 sec) 
Heartbeat CPU 0 instructions: 120000000 cycles: 65811888 heartbeat IPC: 1.72013 cumulative IPC: 1.67605 (Simulation time: 0 hr 6 min 0 sec) 
Heartbeat CPU 0 instructions: 130000001 cycles: 71566859 heartbeat IPC: 1.73763 cumulative IPC: 1.68351 (Simulation time: 0 hr 6 min 29 sec) 
Heartbeat CPU 0 instructions: 140000001 cycles: 77433054 heartbeat IPC: 1.70468 cumulative IPC: 1.68584 (Simulation time: 0 hr 6 min 59 sec) 
Heartbeat CPU 0 instructions: 150000003 cycles: 83197273 heartbeat IPC: 1.73484 cumulative IPC: 1.69061 (Simulation time: 0 hr 7 min 28 sec) 
Heartbeat CPU 0 instructions: 160000001 cycles: 88954550 heartbeat IPC: 1.73693 cumulative IPC: 1.69472 (Simulation time: 0 hr 7 min 57 sec) 
Heartbeat CPU 0 instructions: 170000001 cycles: 94710307 heartbeat IPC: 1.73739 cumulative IPC: 1.6982 (Simulation time: 0 hr 8 min 26 sec) 
Heartbeat CPU 0 instructions: 180000003 cycles: 100534554 heartbeat IPC: 1.71696 cumulative IPC: 1.69963 (Simulation time: 0 hr 8 min 54 sec) 
Heartbeat CPU 0 instructions: 190000000 cycles: 106399110 heartbeat IPC: 1.70516 cumulative IPC: 1.70002 (Simulation time: 0 hr 9 min 24 sec) 
Heartbeat CPU 0 instructions: 200000002 cycles: 113731769 heartbeat IPC: 1.36376 cumulative IPC: 1.67253 (Simulation time: 0 hr 9 min 55 sec) 
Heartbeat CPU 0 instructions: 210000002 cycles: 121120028 heartbeat IPC: 1.3535 cumulative IPC: 1.64825 (Simulation time: 0 hr 10 min 27 sec) 
Heartbeat CPU 0 instructions: 220000000 cycles: 128746270 heartbeat IPC: 1.31126 cumulative IPC: 1.6237 (Simulation time: 0 hr 10 min 59 sec) 
Heartbeat CPU 0 instructions: 230000000 cycles: 136094876 heartbeat IPC: 1.3608 cumulative IPC: 1.60646 (Simulation time: 0 hr 11 min 30 sec) 
Heartbeat CPU 0 instructions: 240000003 cycles: 143513954 heartbeat IPC: 1.34788 cumulative IPC: 1.5904 (Simulation time: 0 hr 12 min 2 sec) 
Heartbeat CPU 0 instructions: 250000003 cycles: 150861070 heartbeat IPC: 1.36108 cumulative IPC: 1.57711 (Simulation time: 0 hr 12 min 34 sec) 
Heartbeat CPU 0 instructions: 260000002 cycles: 158251403 heartbeat IPC: 1.35312 cumulative IPC: 1.56478 (Simulation time: 0 hr 13 min 5 sec) 
Heartbeat CPU 0 instructions: 270000002 cycles: 165660341 heartbeat IPC: 1.34972 cumulative IPC: 1.55353 (Simulation time: 0 hr 13 min 37 sec) 
Heartbeat CPU 0 instructions: 280000002 cycles: 172986309 heartbeat IPC: 1.36501 cumulative IPC: 1.54425 (Simulation time: 0 hr 14 min 8 sec) 
Heartbeat CPU 0 instructions: 290000000 cycles: 180384625 heartbeat IPC: 1.35166 cumulative IPC: 1.53514 (Simulation time: 0 hr 14 min 40 sec) 
Heartbeat CPU 0 instructions: 300000000 cycles: 187737426 heartbeat IPC: 1.36003 cumulative IPC: 1.52727 (Simulation time: 0 hr 15 min 12 sec) 
Finished CPU 0 instructions: 250000001 cycles: 163690289 cumulative IPC: 1.52727 (Simulation time: 0 hr 15 min 12 sec) 

ChampSim completed all CPUs

Region of Interest Statistics

CPU 0 cumulative IPC: 1.52727 instructions: 250000001 cycles: 163690289
L1D TOTAL     ACCESS:   86207879  HIT:   85183669  MISS:    1024210
L1D LOAD      ACCESS:   71366653  HIT:   71007836  MISS:     358817
L1D RFO       ACCESS:   14841226  HIT:   14175833  MISS:     665393
L1D PREFETCH  ACCESS:          0  HIT:          0  MISS:          0
L1D WRITEBACK ACCESS:          0  HIT:          0  MISS:          0
L1D PREFETCH  REQUESTED:          0  ISSUED:          0  USEFUL:          0  USELESS:          0
L1D AVERAGE MISS LATENCY: 101.408 cycles
L1I TOTAL     ACCESS:   41256503  HIT:   41256497  MISS:          6
L1I LOAD      ACCESS:   41256500  HIT:   41256496  MISS:          4
L1I RFO       ACCESS:          0  HIT:          0  MISS:          0
L1I PREFETCH  ACCESS:          3  HIT:          1  MISS:          2
L1I WRITEBACK ACCESS:          0  HIT:          0  MISS:          0
L1I PREFETCH  REQUESTED:          4  ISSUED:          4  USEFUL:          3  USELESS:          1
L1I AVERAGE MISS LATENCY: 222 cycles
L2C TOTAL     ACCESS:    2043030  HIT:    1364829  MISS:     678201
L2C LOAD      ACCESS:     358821  HIT:     347285  MISS:      11536
L2C RFO       ACCESS:     665393  HIT:      16745  MISS:     648648
L2C PREFETCH  ACCESS:     352104  HIT:     334153  MISS:      17951
L2C WRITEBACK ACCESS:     666712  HIT:     666646  MISS:         66
L2C PREFETCH  REQUESTED:     352707  ISSUED:     352707  USEFUL:      13093  USELESS:       4857
L2C AVERAGE MISS LATENCY: 132.795 cycles
LLC TOTAL     ACCESS:    1329401  HIT:    1005309  MISS:     324092
LLC LOAD      ACCESS:      11397  HIT:       9009  MISS:       2388
LLC RFO       ACCESS:     648648  HIT:     332402  MISS:     316246
LLC PREFETCH  ACCESS:      18090  HIT:      12655  MISS:       5435
LLC WRITEBACK ACCESS:     651266  HIT:     651243  MISS:         23
LLC PREFETCH  REQUESTED:          0  ISSUED:          0  USEFUL:        657  USELESS:       5342
LLC AVERAGE MISS LATENCY: 215.122 cycles
Major fault: 0 Minor fault: 2245
CPU 0 L1I next line prefetcher final stats
CPU 0 L2C best offset prefetcher final stats

DRAM Statistics
 CHANNEL 0
 RQ ROW_BUFFER_HIT:     189551  ROW_BUFFER_MISS:     134516
 DBUS_CONGESTED:       9967
 WQ ROW_BUFFER_HIT:     104399  ROW_BUFFER_MISS:     210949  FULL:          0

 AVG_CONGESTED_CYCLE: 6

CPU 0 Branch Prediction Accuracy: 99.402% MPKI: 0.264272 Average ROB Occupancy at Mispredict: 87.7896

Branch types
NOT_BRANCH: 238951824 95.5807%
BRANCH_DIRECT_JUMP: 43649 0.0174596%
BRANCH_INDIRECT: 14325 0.00573%
BRANCH_CONDITIONAL: 10910018 4.36401%
BRANCH_DIRECT_CALL: 39823 0.0159292%
BRANCH_INDIRECT_CALL: 266 0.0001064%
BRANCH_RETURN: 40089 0.0160356%
BRANCH_OTHER: 0 0%

