
*** ChampSim Multicore Out-of-Order Simulator ***

Warmup Instructions: 50000000
Simulation Instructions: 250000000
Number of CPUs: 1
LLC sets: 2048
LLC ways: 16
Off-chip DRAM Size: 4096 MB Channels: 1 Width: 64-bit Data Rate: 3200 MT/s

CPU 0 runs /home/wezelis2/ECE511_Project/ChampSim/dpc3_traces/456.hmmer-327B.champsimtrace.xz
CPU 0 Bimodal branch predictor
CPU 0 L1I next line prefetcher
CPU 0 L2C next line prefetcher
Heartbeat CPU 0 instructions: 10000000 cycles: 4816816 heartbeat IPC: 2.07606 cumulative IPC: 2.07606 (Simulation time: 0 hr 0 min 35 sec) 
Heartbeat CPU 0 instructions: 20000003 cycles: 9629779 heartbeat IPC: 2.07772 cumulative IPC: 2.07689 (Simulation time: 0 hr 1 min 11 sec) 
Heartbeat CPU 0 instructions: 30000001 cycles: 14431253 heartbeat IPC: 2.08269 cumulative IPC: 2.07882 (Simulation time: 0 hr 1 min 46 sec) 
Heartbeat CPU 0 instructions: 40000002 cycles: 19240178 heartbeat IPC: 2.07947 cumulative IPC: 2.07898 (Simulation time: 0 hr 2 min 21 sec) 
Heartbeat CPU 0 instructions: 50000003 cycles: 24047154 heartbeat IPC: 2.08031 cumulative IPC: 2.07925 (Simulation time: 0 hr 2 min 55 sec) 

Warmup complete CPU 0 instructions: 50000003 cycles: 24047154 (Simulation time: 0 hr 2 min 55 sec) 

Heartbeat CPU 0 instructions: 60000000 cycles: 29812858 heartbeat IPC: 1.73439 cumulative IPC: 1.73439 (Simulation time: 0 hr 3 min 29 sec) 
Heartbeat CPU 0 instructions: 70000002 cycles: 35569753 heartbeat IPC: 1.73705 cumulative IPC: 1.73572 (Simulation time: 0 hr 4 min 2 sec) 
Heartbeat CPU 0 instructions: 80000002 cycles: 41328576 heartbeat IPC: 1.73647 cumulative IPC: 1.73597 (Simulation time: 0 hr 4 min 36 sec) 
Heartbeat CPU 0 instructions: 90000000 cycles: 47780409 heartbeat IPC: 1.54995 cumulative IPC: 1.6854 (Simulation time: 0 hr 5 min 10 sec) 
Heartbeat CPU 0 instructions: 100000003 cycles: 53817940 heartbeat IPC: 1.65631 cumulative IPC: 1.6795 (Simulation time: 0 hr 5 min 45 sec) 
Heartbeat CPU 0 instructions: 110000000 cycles: 59880907 heartbeat IPC: 1.64936 cumulative IPC: 1.6744 (Simulation time: 0 hr 6 min 19 sec) 
Heartbeat CPU 0 instructions: 120000000 cycles: 65686919 heartbeat IPC: 1.72235 cumulative IPC: 1.68109 (Simulation time: 0 hr 6 min 53 sec) 
Heartbeat CPU 0 instructions: 130000001 cycles: 71442067 heartbeat IPC: 1.73757 cumulative IPC: 1.68794 (Simulation time: 0 hr 7 min 28 sec) 
Heartbeat CPU 0 instructions: 140000001 cycles: 77289627 heartbeat IPC: 1.71011 cumulative IPC: 1.69038 (Simulation time: 0 hr 8 min 2 sec) 
Heartbeat CPU 0 instructions: 150000003 cycles: 83049375 heartbeat IPC: 1.73619 cumulative IPC: 1.69485 (Simulation time: 0 hr 8 min 35 sec) 
Heartbeat CPU 0 instructions: 160000001 cycles: 88806993 heartbeat IPC: 1.73683 cumulative IPC: 1.69858 (Simulation time: 0 hr 9 min 10 sec) 
Heartbeat CPU 0 instructions: 170000001 cycles: 94563098 heartbeat IPC: 1.73729 cumulative IPC: 1.70174 (Simulation time: 0 hr 9 min 44 sec) 
Heartbeat CPU 0 instructions: 180000000 cycles: 100389446 heartbeat IPC: 1.71634 cumulative IPC: 1.70286 (Simulation time: 0 hr 10 min 18 sec) 
Heartbeat CPU 0 instructions: 190000000 cycles: 106243584 heartbeat IPC: 1.70819 cumulative IPC: 1.70324 (Simulation time: 0 hr 10 min 54 sec) 
Heartbeat CPU 0 instructions: 200000002 cycles: 113569009 heartbeat IPC: 1.36511 cumulative IPC: 1.67557 (Simulation time: 0 hr 11 min 32 sec) 
Heartbeat CPU 0 instructions: 210000002 cycles: 120957539 heartbeat IPC: 1.35345 cumulative IPC: 1.65101 (Simulation time: 0 hr 12 min 10 sec) 
Heartbeat CPU 0 instructions: 220000000 cycles: 128581408 heartbeat IPC: 1.31167 cumulative IPC: 1.62626 (Simulation time: 0 hr 12 min 47 sec) 
Heartbeat CPU 0 instructions: 230000000 cycles: 135911930 heartbeat IPC: 1.36416 cumulative IPC: 1.60909 (Simulation time: 0 hr 13 min 26 sec) 
Heartbeat CPU 0 instructions: 240000003 cycles: 143328934 heartbeat IPC: 1.34825 cumulative IPC: 1.59287 (Simulation time: 0 hr 14 min 5 sec) 
Heartbeat CPU 0 instructions: 250000003 cycles: 150649647 heartbeat IPC: 1.36599 cumulative IPC: 1.57975 (Simulation time: 0 hr 14 min 44 sec) 
Heartbeat CPU 0 instructions: 260000002 cycles: 158022716 heartbeat IPC: 1.35629 cumulative IPC: 1.56745 (Simulation time: 0 hr 15 min 23 sec) 
Heartbeat CPU 0 instructions: 270000002 cycles: 165428540 heartbeat IPC: 1.35029 cumulative IPC: 1.55607 (Simulation time: 0 hr 16 min 0 sec) 
Heartbeat CPU 0 instructions: 280000002 cycles: 172728145 heartbeat IPC: 1.36994 cumulative IPC: 1.54694 (Simulation time: 0 hr 16 min 37 sec) 
Heartbeat CPU 0 instructions: 290000000 cycles: 180125949 heartbeat IPC: 1.35175 cumulative IPC: 1.53768 (Simulation time: 0 hr 17 min 15 sec) 
Heartbeat CPU 0 instructions: 300000000 cycles: 187453434 heartbeat IPC: 1.36472 cumulative IPC: 1.52993 (Simulation time: 0 hr 17 min 54 sec) 
Finished CPU 0 instructions: 250000001 cycles: 163406281 cumulative IPC: 1.52993 (Simulation time: 0 hr 17 min 54 sec) 

ChampSim completed all CPUs

Region of Interest Statistics

CPU 0 cumulative IPC: 1.52993 instructions: 250000001 cycles: 163406281
L1D TOTAL     ACCESS:   86217022  HIT:   85192807  MISS:    1024215
L1D LOAD      ACCESS:   71368038  HIT:   71009216  MISS:     358822
L1D RFO       ACCESS:   14848984  HIT:   14183591  MISS:     665393
L1D PREFETCH  ACCESS:          0  HIT:          0  MISS:          0
L1D WRITEBACK ACCESS:          0  HIT:          0  MISS:          0
L1D PREFETCH  REQUESTED:          0  ISSUED:          0  USEFUL:          0  USELESS:          0
L1D AVERAGE MISS LATENCY: 100.583 cycles
L1I TOTAL     ACCESS:   41256307  HIT:   41256301  MISS:          6
L1I LOAD      ACCESS:   41256304  HIT:   41256300  MISS:          4
L1I RFO       ACCESS:          0  HIT:          0  MISS:          0
L1I PREFETCH  ACCESS:          3  HIT:          1  MISS:          2
L1I WRITEBACK ACCESS:          0  HIT:          0  MISS:          0
L1I PREFETCH  REQUESTED:          4  ISSUED:          4  USEFUL:          3  USELESS:          1
L1I AVERAGE MISS LATENCY: 222 cycles
L2C TOTAL     ACCESS:    2043062  HIT:    1364611  MISS:     678451
L2C LOAD      ACCESS:     358826  HIT:     347423  MISS:      11403
L2C RFO       ACCESS:     665393  HIT:      16634  MISS:     648759
L2C PREFETCH  ACCESS:     352131  HIT:     333910  MISS:      18221
L2C WRITEBACK ACCESS:     666712  HIT:     666644  MISS:         68
L2C PREFETCH  REQUESTED:     358828  ISSUED:     352711  USEFUL:      13375  USELESS:       4845
L2C AVERAGE MISS LATENCY: 131.49 cycles
LLC TOTAL     ACCESS:    1329890  HIT:    1008269  MISS:     321621
LLC LOAD      ACCESS:      11274  HIT:       8936  MISS:       2338
LLC RFO       ACCESS:     648759  HIT:     334805  MISS:     313954
LLC PREFETCH  ACCESS:      18350  HIT:      13044  MISS:       5306
LLC WRITEBACK ACCESS:     651507  HIT:     651484  MISS:         23
LLC PREFETCH  REQUESTED:          0  ISSUED:          0  USEFUL:        647  USELESS:       5219
LLC AVERAGE MISS LATENCY: 214.1 cycles
Major fault: 0 Minor fault: 2245
CPU 0 L1I next line prefetcher final stats
CPU 0 L2C next line prefetcher final stats

DRAM Statistics
 CHANNEL 0
 RQ ROW_BUFFER_HIT:     189760  ROW_BUFFER_MISS:     131835
 DBUS_CONGESTED:      10508
 WQ ROW_BUFFER_HIT:      97053  ROW_BUFFER_MISS:     215929  FULL:          0

 AVG_CONGESTED_CYCLE: 6

CPU 0 Branch Prediction Accuracy: 99.402% MPKI: 0.264272 Average ROB Occupancy at Mispredict: 87.791

Branch types
NOT_BRANCH: 238951824 95.5807%
BRANCH_DIRECT_JUMP: 43649 0.0174596%
BRANCH_INDIRECT: 14325 0.00573%
BRANCH_CONDITIONAL: 10910018 4.36401%
BRANCH_DIRECT_CALL: 39823 0.0159292%
BRANCH_INDIRECT_CALL: 266 0.0001064%
BRANCH_RETURN: 40089 0.0160356%
BRANCH_OTHER: 0 0%

