
*** ChampSim Multicore Out-of-Order Simulator ***

Warmup Instructions: 50000000
Simulation Instructions: 250000000
Number of CPUs: 1
LLC sets: 2048
LLC ways: 16
Off-chip DRAM Size: 4096 MB Channels: 1 Width: 64-bit Data Rate: 3200 MT/s

CPU 0 runs /home/wezelis2/ece511/ECE511_Project/ChampSim/dpc3_traces/456.hmmer-327B.champsimtrace.xz
CPU 0 Bimodal branch predictor
CPU 0 L1I next line prefetcher
Heartbeat CPU 0 instructions: 10000000 cycles: 4816816 heartbeat IPC: 2.07606 cumulative IPC: 2.07606 (Simulation time: 0 hr 0 min 33 sec) 
Heartbeat CPU 0 instructions: 20000003 cycles: 9629765 heartbeat IPC: 2.07773 cumulative IPC: 2.07689 (Simulation time: 0 hr 1 min 4 sec) 
Heartbeat CPU 0 instructions: 30000001 cycles: 14431241 heartbeat IPC: 2.08269 cumulative IPC: 2.07882 (Simulation time: 0 hr 1 min 35 sec) 
Heartbeat CPU 0 instructions: 40000002 cycles: 19240167 heartbeat IPC: 2.07947 cumulative IPC: 2.07898 (Simulation time: 0 hr 2 min 5 sec) 
Heartbeat CPU 0 instructions: 50000003 cycles: 24047147 heartbeat IPC: 2.08031 cumulative IPC: 2.07925 (Simulation time: 0 hr 2 min 36 sec) 

Warmup complete CPU 0 instructions: 50000003 cycles: 24047147 (Simulation time: 0 hr 2 min 36 sec) 

Heartbeat CPU 0 instructions: 60000000 cycles: 29812920 heartbeat IPC: 1.73437 cumulative IPC: 1.73437 (Simulation time: 0 hr 3 min 5 sec) 
Heartbeat CPU 0 instructions: 70000002 cycles: 35569817 heartbeat IPC: 1.73705 cumulative IPC: 1.73571 (Simulation time: 0 hr 3 min 34 sec) 
Heartbeat CPU 0 instructions: 80000002 cycles: 41328601 heartbeat IPC: 1.73648 cumulative IPC: 1.73597 (Simulation time: 0 hr 4 min 3 sec) 
Heartbeat CPU 0 instructions: 90000000 cycles: 47802878 heartbeat IPC: 1.54457 cumulative IPC: 1.6838 (Simulation time: 0 hr 4 min 34 sec) 
Heartbeat CPU 0 instructions: 100000003 cycles: 53898538 heartbeat IPC: 1.64051 cumulative IPC: 1.67496 (Simulation time: 0 hr 5 min 5 sec) 
Heartbeat CPU 0 instructions: 110000000 cycles: 60003650 heartbeat IPC: 1.63797 cumulative IPC: 1.66868 (Simulation time: 0 hr 5 min 35 sec) 
Heartbeat CPU 0 instructions: 120000000 cycles: 65817834 heartbeat IPC: 1.71993 cumulative IPC: 1.67582 (Simulation time: 0 hr 6 min 4 sec) 
Heartbeat CPU 0 instructions: 130000001 cycles: 71572966 heartbeat IPC: 1.73758 cumulative IPC: 1.6833 (Simulation time: 0 hr 6 min 34 sec) 
Heartbeat CPU 0 instructions: 140000001 cycles: 77439804 heartbeat IPC: 1.7045 cumulative IPC: 1.68562 (Simulation time: 0 hr 7 min 4 sec) 
Heartbeat CPU 0 instructions: 150000003 cycles: 83204023 heartbeat IPC: 1.73484 cumulative IPC: 1.69042 (Simulation time: 0 hr 7 min 33 sec) 
Heartbeat CPU 0 instructions: 160000001 cycles: 88961300 heartbeat IPC: 1.73693 cumulative IPC: 1.69455 (Simulation time: 0 hr 8 min 3 sec) 
Heartbeat CPU 0 instructions: 170000001 cycles: 94717057 heartbeat IPC: 1.73739 cumulative IPC: 1.69804 (Simulation time: 0 hr 8 min 33 sec) 
Heartbeat CPU 0 instructions: 180000003 cycles: 100541408 heartbeat IPC: 1.71693 cumulative IPC: 1.69947 (Simulation time: 0 hr 9 min 2 sec) 
Heartbeat CPU 0 instructions: 190000000 cycles: 106406366 heartbeat IPC: 1.70504 cumulative IPC: 1.69987 (Simulation time: 0 hr 9 min 32 sec) 
Heartbeat CPU 0 instructions: 200000002 cycles: 113739551 heartbeat IPC: 1.36366 cumulative IPC: 1.67238 (Simulation time: 0 hr 10 min 4 sec) 
Heartbeat CPU 0 instructions: 210000002 cycles: 121127810 heartbeat IPC: 1.3535 cumulative IPC: 1.64811 (Simulation time: 0 hr 10 min 36 sec) 
Heartbeat CPU 0 instructions: 220000000 cycles: 128755943 heartbeat IPC: 1.31094 cumulative IPC: 1.62355 (Simulation time: 0 hr 11 min 8 sec) 
Heartbeat CPU 0 instructions: 230000000 cycles: 136104520 heartbeat IPC: 1.36081 cumulative IPC: 1.60632 (Simulation time: 0 hr 11 min 41 sec) 
Heartbeat CPU 0 instructions: 240000003 cycles: 143523598 heartbeat IPC: 1.34788 cumulative IPC: 1.59027 (Simulation time: 0 hr 12 min 12 sec) 
Heartbeat CPU 0 instructions: 250000003 cycles: 150870714 heartbeat IPC: 1.36108 cumulative IPC: 1.57699 (Simulation time: 0 hr 12 min 45 sec) 
Heartbeat CPU 0 instructions: 260000002 cycles: 158262048 heartbeat IPC: 1.35294 cumulative IPC: 1.56465 (Simulation time: 0 hr 13 min 17 sec) 
Heartbeat CPU 0 instructions: 270000002 cycles: 165671568 heartbeat IPC: 1.34962 cumulative IPC: 1.5534 (Simulation time: 0 hr 13 min 49 sec) 
Heartbeat CPU 0 instructions: 280000002 cycles: 172997860 heartbeat IPC: 1.36495 cumulative IPC: 1.54413 (Simulation time: 0 hr 14 min 21 sec) 
Heartbeat CPU 0 instructions: 290000000 cycles: 180396176 heartbeat IPC: 1.35166 cumulative IPC: 1.53503 (Simulation time: 0 hr 14 min 53 sec) 
Heartbeat CPU 0 instructions: 300000000 cycles: 187748977 heartbeat IPC: 1.36003 cumulative IPC: 1.52717 (Simulation time: 0 hr 15 min 24 sec) 
Finished CPU 0 instructions: 250000001 cycles: 163701831 cumulative IPC: 1.52717 (Simulation time: 0 hr 15 min 24 sec) 

ChampSim completed all CPUs

Region of Interest Statistics

CPU 0 cumulative IPC: 1.52717 instructions: 250000001 cycles: 163701831
L1D TOTAL     ACCESS:   86207945  HIT:   85183734  MISS:    1024211
L1D LOAD      ACCESS:   71366946  HIT:   71008128  MISS:     358818
L1D RFO       ACCESS:   14840999  HIT:   14175606  MISS:     665393
L1D PREFETCH  ACCESS:          0  HIT:          0  MISS:          0
L1D WRITEBACK ACCESS:          0  HIT:          0  MISS:          0
L1D PREFETCH  REQUESTED:          0  ISSUED:          0  USEFUL:          0  USELESS:          0
L1D AVERAGE MISS LATENCY: 101.434 cycles
L1I TOTAL     ACCESS:   41256673  HIT:   41256667  MISS:          6
L1I LOAD      ACCESS:   41256670  HIT:   41256666  MISS:          4
L1I RFO       ACCESS:          0  HIT:          0  MISS:          0
L1I PREFETCH  ACCESS:          3  HIT:          1  MISS:          2
L1I WRITEBACK ACCESS:          0  HIT:          0  MISS:          0
L1I PREFETCH  REQUESTED:          4  ISSUED:          4  USEFUL:          3  USELESS:          1
L1I AVERAGE MISS LATENCY: 220.333 cycles
L2C TOTAL     ACCESS:    2042924  HIT:    1364559  MISS:     678365
L2C LOAD      ACCESS:     358822  HIT:     347204  MISS:      11618
L2C RFO       ACCESS:     665393  HIT:      16685  MISS:     648708
L2C PREFETCH  ACCESS:     351997  HIT:     334024  MISS:      17973
L2C WRITEBACK ACCESS:     666712  HIT:     666646  MISS:         66
L2C PREFETCH  REQUESTED:     352473  ISSUED:     352473  USEFUL:      13012  USELESS:       4960
L2C AVERAGE MISS LATENCY: 132.801 cycles
LLC TOTAL     ACCESS:    1329631  HIT:    1005367  MISS:     324264
LLC LOAD      ACCESS:      11483  HIT:       9056  MISS:       2427
LLC RFO       ACCESS:     648708  HIT:     332347  MISS:     316361
LLC PREFETCH  ACCESS:      18108  HIT:      12655  MISS:       5453
LLC WRITEBACK ACCESS:     651332  HIT:     651309  MISS:         23
LLC PREFETCH  REQUESTED:          0  ISSUED:          0  USEFUL:        679  USELESS:       5364
LLC AVERAGE MISS LATENCY: 215.083 cycles
Major fault: 0 Minor fault: 2245
CPU 0 L1I next line prefetcher final stats
CPU 0 L2C best offset prefetcher final stats

DRAM Statistics
 CHANNEL 0
 RQ ROW_BUFFER_HIT:     189692  ROW_BUFFER_MISS:     134546
 DBUS_CONGESTED:       9959
 WQ ROW_BUFFER_HIT:     104405  ROW_BUFFER_MISS:     211023  FULL:          0

 AVG_CONGESTED_CYCLE: 6

CPU 0 Branch Prediction Accuracy: 99.402% MPKI: 0.264272 Average ROB Occupancy at Mispredict: 87.7843

Branch types
NOT_BRANCH: 238951824 95.5807%
BRANCH_DIRECT_JUMP: 43649 0.0174596%
BRANCH_INDIRECT: 14325 0.00573%
BRANCH_CONDITIONAL: 10910018 4.36401%
BRANCH_DIRECT_CALL: 39823 0.0159292%
BRANCH_INDIRECT_CALL: 266 0.0001064%
BRANCH_RETURN: 40089 0.0160356%
BRANCH_OTHER: 0 0%

