
*** ChampSim Multicore Out-of-Order Simulator ***

Warmup Instructions: 50000000
Simulation Instructions: 250000000
Number of CPUs: 1
LLC sets: 2048
LLC ways: 16
Off-chip DRAM Size: 4096 MB Channels: 1 Width: 64-bit Data Rate: 3200 MT/s

CPU 0 runs /home/wezelis2/ECE511_Project/ChampSim/dpc3_traces/456.hmmer-327B.champsimtrace.xz
CPU 0 Bimodal branch predictor
CPU 0 L1I next line prefetcher
CPU 0 L2C IP-based stride prefetcher
Heartbeat CPU 0 instructions: 10000000 cycles: 4816796 heartbeat IPC: 2.07607 cumulative IPC: 2.07607 (Simulation time: 0 hr 0 min 35 sec) 
Heartbeat CPU 0 instructions: 20000003 cycles: 9629261 heartbeat IPC: 2.07794 cumulative IPC: 2.077 (Simulation time: 0 hr 1 min 11 sec) 
Heartbeat CPU 0 instructions: 30000001 cycles: 14430761 heartbeat IPC: 2.08268 cumulative IPC: 2.07889 (Simulation time: 0 hr 1 min 47 sec) 
Heartbeat CPU 0 instructions: 40000002 cycles: 19239697 heartbeat IPC: 2.07946 cumulative IPC: 2.07904 (Simulation time: 0 hr 2 min 24 sec) 
Heartbeat CPU 0 instructions: 50000003 cycles: 24046660 heartbeat IPC: 2.08032 cumulative IPC: 2.07929 (Simulation time: 0 hr 2 min 58 sec) 

Warmup complete CPU 0 instructions: 50000003 cycles: 24046660 (Simulation time: 0 hr 2 min 58 sec) 

Heartbeat CPU 0 instructions: 60000000 cycles: 29812056 heartbeat IPC: 1.73449 cumulative IPC: 1.73449 (Simulation time: 0 hr 3 min 34 sec) 
Heartbeat CPU 0 instructions: 70000002 cycles: 35568715 heartbeat IPC: 1.73712 cumulative IPC: 1.7358 (Simulation time: 0 hr 4 min 8 sec) 
Heartbeat CPU 0 instructions: 80000002 cycles: 41327283 heartbeat IPC: 1.73654 cumulative IPC: 1.73605 (Simulation time: 0 hr 4 min 42 sec) 
Heartbeat CPU 0 instructions: 90000000 cycles: 47770985 heartbeat IPC: 1.5519 cumulative IPC: 1.68603 (Simulation time: 0 hr 5 min 18 sec) 
Heartbeat CPU 0 instructions: 100000003 cycles: 53798620 heartbeat IPC: 1.65903 cumulative IPC: 1.68056 (Simulation time: 0 hr 5 min 53 sec) 
Heartbeat CPU 0 instructions: 110000000 cycles: 59854475 heartbeat IPC: 1.65129 cumulative IPC: 1.67561 (Simulation time: 0 hr 6 min 29 sec) 
Heartbeat CPU 0 instructions: 120000000 cycles: 65656981 heartbeat IPC: 1.72339 cumulative IPC: 1.68227 (Simulation time: 0 hr 7 min 3 sec) 
Heartbeat CPU 0 instructions: 130000001 cycles: 71411922 heartbeat IPC: 1.73764 cumulative IPC: 1.689 (Simulation time: 0 hr 7 min 38 sec) 
Heartbeat CPU 0 instructions: 140000001 cycles: 77254733 heartbeat IPC: 1.7115 cumulative IPC: 1.69147 (Simulation time: 0 hr 8 min 11 sec) 
Heartbeat CPU 0 instructions: 150000003 cycles: 83012959 heartbeat IPC: 1.73665 cumulative IPC: 1.69588 (Simulation time: 0 hr 8 min 46 sec) 
Heartbeat CPU 0 instructions: 160000001 cycles: 88770008 heartbeat IPC: 1.737 cumulative IPC: 1.69954 (Simulation time: 0 hr 9 min 20 sec) 
Heartbeat CPU 0 instructions: 170000001 cycles: 94524975 heartbeat IPC: 1.73763 cumulative IPC: 1.70265 (Simulation time: 0 hr 9 min 54 sec) 
Heartbeat CPU 0 instructions: 180000000 cycles: 100353154 heartbeat IPC: 1.7158 cumulative IPC: 1.70366 (Simulation time: 0 hr 10 min 28 sec) 
Heartbeat CPU 0 instructions: 190000000 cycles: 106205187 heartbeat IPC: 1.70881 cumulative IPC: 1.70402 (Simulation time: 0 hr 11 min 3 sec) 
Heartbeat CPU 0 instructions: 200000002 cycles: 113530834 heartbeat IPC: 1.36507 cumulative IPC: 1.67627 (Simulation time: 0 hr 11 min 40 sec) 
Heartbeat CPU 0 instructions: 210000002 cycles: 120921095 heartbeat IPC: 1.35313 cumulative IPC: 1.65162 (Simulation time: 0 hr 12 min 19 sec) 
Heartbeat CPU 0 instructions: 220000000 cycles: 128498175 heartbeat IPC: 1.31977 cumulative IPC: 1.62755 (Simulation time: 0 hr 12 min 55 sec) 
Heartbeat CPU 0 instructions: 230000000 cycles: 135831161 heartbeat IPC: 1.3637 cumulative IPC: 1.61024 (Simulation time: 0 hr 13 min 34 sec) 
Heartbeat CPU 0 instructions: 240000003 cycles: 143230442 heartbeat IPC: 1.35148 cumulative IPC: 1.59418 (Simulation time: 0 hr 14 min 11 sec) 
Heartbeat CPU 0 instructions: 250000003 cycles: 150552947 heartbeat IPC: 1.36565 cumulative IPC: 1.58095 (Simulation time: 0 hr 14 min 49 sec) 
Heartbeat CPU 0 instructions: 260000002 cycles: 157927651 heartbeat IPC: 1.35599 cumulative IPC: 1.56856 (Simulation time: 0 hr 15 min 26 sec) 
Heartbeat CPU 0 instructions: 270000002 cycles: 165321503 heartbeat IPC: 1.35248 cumulative IPC: 1.55725 (Simulation time: 0 hr 16 min 3 sec) 
Heartbeat CPU 0 instructions: 280000002 cycles: 172633056 heartbeat IPC: 1.3677 cumulative IPC: 1.54792 (Simulation time: 0 hr 16 min 39 sec) 
Heartbeat CPU 0 instructions: 290000000 cycles: 180015731 heartbeat IPC: 1.35452 cumulative IPC: 1.53877 (Simulation time: 0 hr 17 min 18 sec) 
Heartbeat CPU 0 instructions: 300000000 cycles: 187344098 heartbeat IPC: 1.36456 cumulative IPC: 1.53095 (Simulation time: 0 hr 17 min 56 sec) 
Finished CPU 0 instructions: 250000001 cycles: 163297439 cumulative IPC: 1.53095 (Simulation time: 0 hr 17 min 56 sec) 

ChampSim completed all CPUs

Region of Interest Statistics

CPU 0 cumulative IPC: 1.53095 instructions: 250000001 cycles: 163297439
L1D TOTAL     ACCESS:   86212838  HIT:   85188623  MISS:    1024215
L1D LOAD      ACCESS:   71369531  HIT:   71010709  MISS:     358822
L1D RFO       ACCESS:   14843307  HIT:   14177914  MISS:     665393
L1D PREFETCH  ACCESS:          0  HIT:          0  MISS:          0
L1D WRITEBACK ACCESS:          0  HIT:          0  MISS:          0
L1D PREFETCH  REQUESTED:          0  ISSUED:          0  USEFUL:          0  USELESS:          0
L1D AVERAGE MISS LATENCY: 100.453 cycles
L1I TOTAL     ACCESS:   41255669  HIT:   41255663  MISS:          6
L1I LOAD      ACCESS:   41255666  HIT:   41255662  MISS:          4
L1I RFO       ACCESS:          0  HIT:          0  MISS:          0
L1I PREFETCH  ACCESS:          3  HIT:          1  MISS:          2
L1I WRITEBACK ACCESS:          0  HIT:          0  MISS:          0
L1I PREFETCH  REQUESTED:          4  ISSUED:          4  USEFUL:          3  USELESS:          1
L1I AVERAGE MISS LATENCY: 218.667 cycles
L2C TOTAL     ACCESS:    2536465  HIT:    1862455  MISS:     674010
L2C LOAD      ACCESS:     358826  HIT:     350171  MISS:       8655
L2C RFO       ACCESS:     665393  HIT:      16283  MISS:     649110
L2C PREFETCH  ACCESS:     845534  HIT:     829357  MISS:      16177
L2C WRITEBACK ACCESS:     666712  HIT:     666644  MISS:         68
L2C PREFETCH  REQUESTED:     847249  ISSUED:     847249  USEFUL:      15007  USELESS:       1167
L2C AVERAGE MISS LATENCY: 132.135 cycles
LLC TOTAL     ACCESS:    1325178  HIT:    1004121  MISS:     321057
LLC LOAD      ACCESS:       8357  HIT:       6764  MISS:       1593
LLC RFO       ACCESS:     649110  HIT:     335159  MISS:     313951
LLC PREFETCH  ACCESS:      16475  HIT:      10985  MISS:       5490
LLC WRITEBACK ACCESS:     651236  HIT:     651213  MISS:         23
LLC PREFETCH  REQUESTED:          0  ISSUED:          0  USEFUL:        722  USELESS:       5950
LLC AVERAGE MISS LATENCY: 214.545 cycles
Major fault: 0 Minor fault: 2245
CPU 0 L1I next line prefetcher final stats
CPU 0 L2C PC-based stride prefetcher final stats

DRAM Statistics
 CHANNEL 0
 RQ ROW_BUFFER_HIT:     189935  ROW_BUFFER_MISS:     131097
 DBUS_CONGESTED:      10660
 WQ ROW_BUFFER_HIT:      97853  ROW_BUFFER_MISS:     215242  FULL:          0

 AVG_CONGESTED_CYCLE: 6

CPU 0 Branch Prediction Accuracy: 99.402% MPKI: 0.264272 Average ROB Occupancy at Mispredict: 87.7406

Branch types
NOT_BRANCH: 238951824 95.5807%
BRANCH_DIRECT_JUMP: 43649 0.0174596%
BRANCH_INDIRECT: 14325 0.00573%
BRANCH_CONDITIONAL: 10910018 4.36401%
BRANCH_DIRECT_CALL: 39823 0.0159292%
BRANCH_INDIRECT_CALL: 266 0.0001064%
BRANCH_RETURN: 40089 0.0160356%
BRANCH_OTHER: 0 0%

